**************************************************
* Manufacturer:           Wurth Elektronik 
* Kinds:                  Flyback Transformer suitable for LT3573/ LT3574/ LT3575/ LT3748
* Matchcode:              WE-FB
* Library Type:           LTspice
* Version:                rev22a
* Created/modified by:    Toby      
* Date and Time:          2022-05-17
* Team:                   eiSos EDA Service  
* Contact:                libraries@we-online.com
**************************************************
* Copyright(C) 2022 Würth Elektronik eiSos GmbH & Co. KG
* All Rights Reserved.
**************************************************
* Disclaimer: While Würth Elektronik eiSos has made every reasonable effort to ensure the accuracy
* of the simulation models provided, Würth Elektronik eiSos does not guarantee the exemption of error on
* the simulation models, nor does Würth Elektronik eiSos guarantee that the simulation model is current.
* Würth Elektronik eiSos reserves the right to make any adjustments at any time without notice.
* Würth Elektronik eiSos expressly disclaims all implied warranties regarding this simulation model.
**************************************************
.subckt 750310617		1  3  2  4  5  6  12  7  11  8  10  9		
.param RxLkg=584.89ohm					
.param Leakage=0.1uh					
Rlkg	1	1a	{RxLkg*2}		
L_Lkg	1	1a	{Leakage*2}	Rser=0.01mohm	
Rlkg2	2	2a	{RxLkg*2}		
L_Lkg2	2	2a	{Leakage*2}	Rser=0.01mohm	
Lpri1	1a	3	4.4uH	Rser=12mohm	
Lpri2	2a	4	4.4uH	Rser=13mohm	
Laux1	5	6	6.125uH	Rser=85mohm	
Lsec1	12	7	6.125uH	Rser=21mohm	
Lsec2	11	8	6.125uH	Rser=21mohm	
Lsec3	10	9	6.125uH	Rser=21mohm	
K Lpri1 Lpri2 Laux1  Lsec1 Lsec2 Lsec3      1					
.param Cprm1=8.12pf					
.param Cprm2=8.075pf					
.param Rdmp1=26319.84ohm					
.param Rdmp2=26319.84ohm					
Cpri1	1	3	{Cprm1}	Rser=10mohm	
Cpri2	2	4	{Cprm2}	Rser=10mohm	
Rdmp1	1	3	{Rdmp1}		
Rdmp2	2	4	{Rdmp2}		
Rg3	1	0	20meg		
Rg4	2	0	20meg		
Rg5	5	0	20meg		
Rg7	3	0	20meg		
Rg8	4	0	20meg		
Rg9	6	0	20meg		
Rg11	12	0	20meg		
Rg12	11	0	20meg		
Rg13	10	0	20meg		
Rg19	7	0	20meg		
Rg20	8	0	20meg		
Rg21	9	0	20meg		
.ends					

.subckt 750311567		3  4  2  1  5  7  6  8		
.param RxLkg=872.87ohm					
.param Leakage=0.4uh					
Rlkg	3	3a	{RxLkg}		
L_Lkg	3	3a	{Leakage}	Rser=0.01mohm	
Lpri1	3a	4	6.6uH	Rser=70mohm	
Laux1	2	1	7uH	Rser=930mohm	
Lsec1	5	7	1.75uH	Rser=46mohm	
Lsec2	6	8	1.75uH	Rser=46mohm	
K Lpri1  Laux1  Lsec1 Lsec2       1					
.param Cprm1=75pf					
.param Rdmp1=15275.27ohm					
Cpri1	3	4	{Cprm1}	Rser=10mohm	
Rdmp1	3	4	{Rdmp1}		
Rg3	3	0	20meg		
Rg5	2	0	20meg		
Rg7	4	0	20meg		
Rg9	1	0	20meg		
Rg11	5	0	20meg		
Rg12	6	0	20meg		
Rg19	7	0	20meg		
Rg20	8	0	20meg		
.ends					

.subckt 750311308		3  4  2  1  5  7		
.param RxLkg=1276.6ohm					
.param Leakage=2.1uh					
Rlkg	3	3a	{RxLkg}		
L_Lkg	3	3a	{Leakage}	Rser=0.01mohm	
Lpri1	3a	4	97.9uH	Rser=325mohm	
Laux1	2	1	11.111uH	Rser=385mohm	
Lsec1	5	7	100uH	Rser=480mohm	
K Lpri1  Laux1  Lsec1        1					
.param Cprm1=67.65pf					
.param Rdmp1=60790.45ohm					
Cpri1	3	4	{Cprm1}	Rser=10mohm	
Rdmp1	3	4	{Rdmp1}		
Rg3	3	0	20meg		
Rg5	2	0	20meg		
Rg7	4	0	20meg		
Rg9	1	0	20meg		
Rg11	5	0	20meg		
Rg19	7	0	20meg		
.ends					

.subckt 750370040		3  4  2  1  5  7		
.param RxLkg=1690.64ohm					
.param Leakage=0.66uh					
Rlkg	3	3a	{RxLkg}		
L_Lkg	3	3a	{Leakage}	Rser=0.01mohm	
Lpri1	3a	4	29.34uH	Rser=59mohm	
Laux1	2	1	3.333uH	Rser=236mohm	
Lsec1	5	7	3.333uH	Rser=12mohm	
K Lpri1  Laux1  Lsec1        1					
.param Cprm1=12.7pf					
.param Rdmp1=76847.38ohm					
Cpri1	3	4	{Cprm1}	Rser=10mohm	
Rdmp1	3	4	{Rdmp1}		
Rg3	3	0	20meg		
Rg5	2	0	20meg		
Rg7	4	0	20meg		
Rg9	1	0	20meg		
Rg11	5	0	20meg		
Rg19	7	0	20meg		
.ends					

.subckt 750311771		1  3  2  4  5  6  12  9  11  8  10  7		
.param RxLkg=5212.84ohm					
.param Leakage=5uh					
Rlkg	1	1a	{RxLkg/2}		
L_Lkg	1	1a	{Leakage/2}	Rser=0.01mohm	
Rlkg2	2	2a	{RxLkg/2}		
L_Lkg2	2	2a	{Leakage/2}	Rser=0.01mohm	
Lpri1	1a	3	122.5uH	Rser=225mohm	
Lpri2	2a	4	122.5uH	Rser=225mohm	
Laux1	5	6	13.889uH	Rser=175mohm	
Lsec1	12	9	13.889uH	Rser=40mohm	
Lsec2	11	8	13.889uH	Rser=40mohm	
Lsec3	10	7	13.889uH	Rser=40mohm	
K Lpri1 Lpri2 Laux1  Lsec1 Lsec2 Lsec3      1					
.param Cprm1=9.2pf					
.param Cprm2=9.4pf					
.param Rdmp1=130321.12ohm					
.param Rdmp2=130321.12ohm					
Cpri1	1	3	{Cprm1}	Rser=10mohm	
Cpri2	2	4	{Cprm2}	Rser=10mohm	
Rdmp1	1	3	{Rdmp1}		
Rdmp2	2	4	{Rdmp2}		
Rg3	1	0	20meg		
Rg4	2	0	20meg		
Rg5	5	0	20meg		
Rg7	3	0	20meg		
Rg8	4	0	20meg		
Rg9	6	0	20meg		
Rg11	12	0	20meg		
Rg12	11	0	20meg		
Rg13	10	0	20meg		
Rg19	9	0	20meg		
Rg20	8	0	20meg		
Rg21	7	0	20meg		
.ends					

.subckt 750311681		3  4  10  8  9  7		
.param RxLkg=2840.19ohm					
.param Leakage=2.2uh					
Rlkg	3	3a	{RxLkg}		
L_Lkg	3	3a	{Leakage}	Rser=0.01mohm	
Lpri1	3a	4	97.8uH	Rser=220mohm	
Lsec1	10	8	10000uH	Rser=28500mohm	
Lsec2	9	7	10000uH	Rser=28500mohm	
K Lpri1    Lsec1 Lsec2       1					
.param Cprm1=15pf					
.param Rdmp1=129099.35ohm					
Cpri1	3	4	{Cprm1}	Rser=10mohm	
Rdmp1	3	4	{Rdmp1}		
Rg3	3	0	20meg		
Rg7	4	0	20meg		
Rg11	10	0	20meg		
Rg12	9	0	20meg		
Rg19	8	0	20meg		
Rg20	7	0	20meg		
.ends					

.subckt 750311856		14  11  16  9  1  2  3  4  5  6  7  8		
.param RxLkg=186.04ohm					
.param Leakage=0.25uh					
Rlkg	14	14a	{RxLkg/2}		
L_Lkg	14	14a	{Leakage/2}	Rser=0.01mohm	
Rlkg2	16	16a	{RxLkg/2}		
L_Lkg2	16	16a	{Leakage/2}	Rser=0.01mohm	
Lpri1	14a	11	3.675uH	Rser=80mohm	
Lpri2	16a	9	3.675uH	Rser=80mohm	
Lsec1	1	2	60.8uH	Rser=1800mohm	
Lsec2	3	4	60.8uH	Rser=1600mohm	
Lsec3	5	6	60.8uH	Rser=1600mohm	
Lsec4	7	8	60.8uH	Rser=1800mohm	
K Lpri1 Lpri2   Lsec1 Lsec2 Lsec3 Lsec4     1					
.param Cprm1=594pf					
.param Cprm2=467.8pf					
.param Rdmp1=2827.84ohm					
.param Rdmp2=2827.84ohm					
Cpri1	14	11	{Cprm1}	Rser=10mohm	
Cpri2	16	9	{Cprm2}	Rser=10mohm	
Rdmp1	14	11	{Rdmp1}		
Rdmp2	16	9	{Rdmp2}		
Rg3	14	0	20meg		
Rg4	16	0	20meg		
Rg7	11	0	20meg		
Rg8	9	0	20meg		
Rg11	1	0	20meg		
Rg12	3	0	20meg		
Rg13	5	0	20meg		
Rg14	7	0	20meg		
Rg19	2	0	20meg		
Rg20	4	0	20meg		
Rg21	6	0	20meg		
Rg22	8	0	20meg		
.ends					

.subckt 750311342		3  4  2  1  5  7  6  8		
.param RxLkg=739.84ohm					
.param Leakage=0.44uh					
Rlkg	3	3a	{RxLkg}		
L_Lkg	3	3a	{Leakage}	Rser=0.01mohm	
Lpri1	3a	4	14.56uH	Rser=85mohm	
Laux1	2	1	15uH	Rser=910mohm	
Lsec1	5	7	3.75uH	Rser=44mohm	
Lsec2	6	8	3.75uH	Rser=44mohm	
K Lpri1  Laux1  Lsec1 Lsec2       1					
.param Cprm1=58.95pf					
.param Rdmp1=25221.65ohm					
Cpri1	3	4	{Cprm1}	Rser=10mohm	
Rdmp1	3	4	{Rdmp1}		
Rg3	3	0	20meg		
Rg5	2	0	20meg		
Rg7	4	0	20meg		
Rg9	1	0	20meg		
Rg11	5	0	20meg		
Rg12	6	0	20meg		
Rg19	7	0	20meg		
Rg20	8	0	20meg		
.ends					

.subckt 750311591		1  3  2  4  5  6  12  9  11  8  10  7		
.param RxLkg=705.7ohm					
.param Leakage=0.2uh					
Rlkg	1	1a	{RxLkg*2}		
L_Lkg	1	1a	{Leakage*2}	Rser=0.01mohm	
Rlkg2	2	2a	{RxLkg*2}		
L_Lkg2	2	2a	{Leakage*2}	Rser=0.01mohm	
Lpri1	1a	3	7.8uH	Rser=18mohm	
Lpri2	2a	4	7.8uH	Rser=18mohm	
Laux1	5	6	1.58uH	Rser=14mohm	
Lsec1	12	9	3.556uH	Rser=21mohm	
Lsec2	11	8	3.556uH	Rser=21mohm	
Lsec3	10	7	3.556uH	Rser=21mohm	
K Lpri1 Lpri2 Laux1  Lsec1 Lsec2 Lsec3      1					
.param Cprm1=12.55pf					
.param Cprm2=12.6pf					
.param Rdmp1=28227.89ohm					
.param Rdmp2=28227.89ohm					
Cpri1	1	3	{Cprm1}	Rser=10mohm	
Cpri2	2	4	{Cprm2}	Rser=10mohm	
Rdmp1	1	3	{Rdmp1}		
Rdmp2	2	4	{Rdmp2}		
Rg3	1	0	20meg		
Rg4	2	0	20meg		
Rg5	5	0	20meg		
Rg7	3	0	20meg		
Rg8	4	0	20meg		
Rg9	6	0	20meg		
Rg11	12	0	20meg		
Rg12	11	0	20meg		
Rg13	10	0	20meg		
Rg19	9	0	20meg		
Rg20	8	0	20meg		
Rg21	7	0	20meg		
.ends					

.subckt 750370047		3  4  2  1  5  7		
.param RxLkg=330.67ohm					
.param Leakage=0.135uh					
Rlkg	3	3a	{RxLkg}		
L_Lkg	3	3a	{Leakage}	Rser=0.01mohm	
Lpri1	3a	4	29.865uH	Rser=60mohm	
Laux1	2	1	3.333uH	Rser=105mohm	
Lsec1	5	7	3.333uH	Rser=12.5mohm	
K Lpri1  Laux1  Lsec1        1					
.param Cprm1=13.89pf					
.param Rdmp1=73481.79ohm					
Cpri1	3	4	{Cprm1}	Rser=10mohm	
Rdmp1	3	4	{Rdmp1}		
Rg3	3	0	20meg		
Rg5	2	0	20meg		
Rg7	4	0	20meg		
Rg9	1	0	20meg		
Rg11	5	0	20meg		
Rg19	7	0	20meg		
.ends					

.subckt 750311911		2  4  1  3  5  6  14  13  12  11  10  9  8  7		
.param RxLkg=67.07ohm					
.param Leakage=0.1uh					
Rlkg	2	2a	{RxLkg/2}		
L_Lkg	2	2a	{Leakage/2}	Rser=0.01mohm	
Rlkg2	1	1a	{RxLkg/2}		
L_Lkg2	1	1a	{Leakage/2}	Rser=0.01mohm	
Lpri1	2a	4	6.73uH	Rser=9mohm	
Lpri2	1a	3	6.73uH	Rser=9mohm	
Laux1	5	6	6.78uH	Rser=180mohm	
Lsec1	14	13	61.02uH	Rser=423mohm	
Lsec2	12	11	61.02uH	Rser=405mohm	
Lsec3	10	9	61.02uH	Rser=405mohm	
Lsec4	8	7	61.02uH	Rser=423mohm	
K Lpri1 Lpri2 Laux1  Lsec1 Lsec2 Lsec3 Lsec4     1					
.param Cprm1=409.9pf					
.param Cprm2=400.18pf					
.param Rdmp1=4547.08ohm					
.param Rdmp2=4547.08ohm					
Cpri1	2	4	{Cprm1}	Rser=10mohm	
Cpri2	1	3	{Cprm2}	Rser=10mohm	
Rdmp1	2	4	{Rdmp1}		
Rdmp2	1	3	{Rdmp2}		
Rg3	2	0	20meg		
Rg4	1	0	20meg		
Rg5	5	0	20meg		
Rg7	4	0	20meg		
Rg8	3	0	20meg		
Rg9	6	0	20meg		
Rg11	14	0	20meg		
Rg12	12	0	20meg		
Rg13	10	0	20meg		
Rg14	8	0	20meg		
Rg19	13	0	20meg		
Rg20	11	0	20meg		
Rg21	9	0	20meg		
Rg22	7	0	20meg		
.ends					

.subckt 750811048		3  2  1  4  5  8  7		
.param RxLkg=5303.89ohm					
.param Leakage=22uh					
Rlkg	3	3a	{RxLkg/2}		
L_Lkg	3	3a	{Leakage/2}	Rser=0.01mohm	
Rlkg2	2	2a	{RxLkg/2}		
L_Lkg2	2	2a	{Leakage/2}	Rser=0.01mohm	
Lpri1	3a	2	364uH	Rser=1450mohm	
Lpri2	2a	1	364uH	Rser=1450mohm	
Laux1	4	5	18.247uH	Rser=1220mohm	
Lsec1	8	7	72.989uH	Rser=210mohm	
K Lpri1 Lpri2 Laux1  Lsec1        1					
.param Cprm1=57.35pf					
.param Cprm2=52.25pf					
.param Rdmp1=90407.18ohm					
.param Rdmp2=90407.18ohm					
Cpri1	3	2	{Cprm1}	Rser=10mohm	
Cpri2	2	1	{Cprm2}	Rser=10mohm	
Rdmp1	3	2	{Rdmp1}		
Rdmp2	2	1	{Rdmp2}		
Rg3	3	0	20meg		
Rg5	4	0	20meg		
Rg7	2	0	20meg		
Rg8	1	0	20meg		
Rg9	5	0	20meg		
Rg11	8	0	20meg		
Rg19	7	0	20meg		
.ends					

.subckt 750370042		3  4  2  1  5  7  6  8		
.param RxLkg=836.41ohm					
.param Leakage=0.25uh					
Rlkg	3	3a	{RxLkg}		
L_Lkg	3	3a	{Leakage}	Rser=0.01mohm	
Lpri1	3a	4	14.75uH	Rser=45mohm	
Laux1	2	1	15uH	Rser=432mohm	
Lsec1	5	7	15uH	Rser=90mohm	
Lsec2	6	8	15uH	Rser=90mohm	
K Lpri1  Laux1  Lsec1 Lsec2       1					
.param Cprm1=14.89pf					
.param Rdmp1=50184.3ohm					
Cpri1	3	4	{Cprm1}	Rser=10mohm	
Rdmp1	3	4	{Rdmp1}		
Rg3	3	0	20meg		
Rg5	2	0	20meg		
Rg7	4	0	20meg		
Rg9	1	0	20meg		
Rg11	5	0	20meg		
Rg12	6	0	20meg		
Rg19	7	0	20meg		
Rg20	8	0	20meg		
.ends					

.subckt 750311689		5  3  2  1  6  9		
.param RxLkg=1039.44ohm					
.param Leakage=0.6uh					
Rlkg	5	5a	{RxLkg}		
L_Lkg	5	5a	{Leakage}	Rser=0.01mohm	
Lpri1	5a	3	49.4uH	Rser=115mohm	
Laux1	2	1	12.5uH	Rser=270mohm	
Lsec1	6	9	3.125uH	Rser=12mohm	
K Lpri1  Laux1  Lsec1        1					
.param Cprm1=16.66pf					
.param Rdmp1=86619.99ohm					
Cpri1	5	3	{Cprm1}	Rser=10mohm	
Rdmp1	5	3	{Rdmp1}		
Rg3	5	0	20meg		
Rg5	2	0	20meg		
Rg7	3	0	20meg		
Rg9	1	0	20meg		
Rg11	6	0	20meg		
Rg19	9	0	20meg		
.ends					

.subckt 750311439		5  3  2  1  6  10		
.param RxLkg=820.05ohm					
.param Leakage=0.58uh					
Rlkg	5	5a	{RxLkg}		
L_Lkg	5	5a	{Leakage}	Rser=0.01mohm	
Lpri1	5a	3	36.42uH	Rser=80.1mohm	
Laux1	2	1	11.193uH	Rser=86.4mohm	
Lsec1	6	10	9.25uH	Rser=25.2mohm	
K Lpri1  Laux1  Lsec1        1					
.param Cprm1=33.8pf					
.param Rdmp1=52313.33ohm					
Cpri1	5	3	{Cprm1}	Rser=10mohm	
Rdmp1	5	3	{Rdmp1}		
Rg3	5	0	20meg		
Rg5	2	0	20meg		
Rg7	3	0	20meg		
Rg9	1	0	20meg		
Rg11	6	0	20meg		
Rg19	10	0	20meg		
.ends					

.subckt 750311486		3  4  2  1  10  8  9  7		
.param RxLkg=357.44ohm					
.param Leakage=4uh					
Rlkg	3	3a	{RxLkg}		
L_Lkg	3	3a	{Leakage}	Rser=0.01mohm	
Lpri1	3a	4	96uH	Rser=220mohm	
Laux1	2	1	4.785uH	Rser=180mohm	
Lsec1	10	8	10000uH	Rser=31000mohm	
Lsec2	9	7	10000uH	Rser=31000mohm	
K Lpri1  Laux1  Lsec1 Lsec2       1					
.param Cprm1=3131pf					
.param Rdmp1=8935.95ohm					
Cpri1	3	4	{Cprm1}	Rser=10mohm	
Rdmp1	3	4	{Rdmp1}		
Rg3	3	0	20meg		
Rg5	2	0	20meg		
Rg7	4	0	20meg		
Rg9	1	0	20meg		
Rg11	10	0	20meg		
Rg12	9	0	20meg		
Rg19	8	0	20meg		
Rg20	7	0	20meg		
.ends					

.subckt 750311457		3  5  2  1  6  9		
.param RxLkg=1033.25ohm					
.param Leakage=0.6uh					
Rlkg	3	3a	{RxLkg}		
L_Lkg	3	3a	{Leakage}	Rser=0.01mohm	
Lpri1	3a	5	49.4uH	Rser=115mohm	
Laux1	2	1	12.5uH	Rser=270mohm	
Lsec1	6	9	3.125uH	Rser=12mohm	
K Lpri1  Laux1  Lsec1        1					
.param Cprm1=16.86pf					
.param Rdmp1=86104.46ohm					
Cpri1	3	5	{Cprm1}	Rser=10mohm	
Rdmp1	3	5	{Rdmp1}		
Rg3	3	0	20meg		
Rg5	2	0	20meg		
Rg7	5	0	20meg		
Rg9	1	0	20meg		
Rg11	6	0	20meg		
Rg19	9	0	20meg		
.ends					

.subckt 750311458		3  5  2  1  6  9		
.param RxLkg=604.89ohm					
.param Leakage=0.175uh					
Rlkg	3	3a	{RxLkg}		
L_Lkg	3	3a	{Leakage}	Rser=0.01mohm	
Lpri1	3a	5	14.825uH	Rser=35mohm	
Laux1	2	1	10.417uH	Rser=131mohm	
Lsec1	6	9	1.667uH	Rser=6mohm	
K Lpri1  Laux1  Lsec1        1					
.param Cprm1=13.95pf					
.param Rdmp1=51847.59ohm					
Cpri1	3	5	{Cprm1}	Rser=10mohm	
Rdmp1	3	5	{Rdmp1}		
Rg3	3	0	20meg		
Rg5	2	0	20meg		
Rg7	5	0	20meg		
Rg9	1	0	20meg		
Rg11	6	0	20meg		
Rg19	9	0	20meg		
.ends					

.subckt 750311422		3  5  2  1  6  9		
.param RxLkg=1008.44ohm					
.param Leakage=0.6uh					
Rlkg	3	3a	{RxLkg}		
L_Lkg	3	3a	{Leakage}	Rser=0.01mohm	
Lpri1	3a	5	49.4uH	Rser=80mohm	
Laux1	2	1	8uH	Rser=145mohm	
Lsec1	6	9	2uH	Rser=8mohm	
K Lpri1  Laux1  Lsec1        1					
.param Cprm1=17.7pf					
.param Rdmp1=84036.66ohm					
Cpri1	3	5	{Cprm1}	Rser=10mohm	
Rdmp1	3	5	{Rdmp1}		
Rg3	3	0	20meg		
Rg5	2	0	20meg		
Rg7	5	0	20meg		
Rg9	1	0	20meg		
Rg11	6	0	20meg		
Rg19	9	0	20meg		
.ends					

.subckt 750311423		3  5  2  1  6  9		
.param RxLkg=966.74ohm					
.param Leakage=0.6uh					
Rlkg	3	3a	{RxLkg}		
L_Lkg	3	3a	{Leakage}	Rser=0.01mohm	
Lpri1	3a	5	49.4uH	Rser=90mohm	
Laux1	2	1	12.5uH	Rser=205mohm	
Lsec1	6	9	3.125uH	Rser=12mohm	
K Lpri1  Laux1  Lsec1        1					
.param Cprm1=19.26pf					
.param Rdmp1=80561.43ohm					
Cpri1	3	5	{Cprm1}	Rser=10mohm	
Rdmp1	3	5	{Rdmp1}		
Rg3	3	0	20meg		
Rg5	2	0	20meg		
Rg7	5	0	20meg		
Rg9	1	0	20meg		
Rg11	6	0	20meg		
Rg19	9	0	20meg		
.ends					

.subckt 750311424		3  5  2  1  6  9		
.param RxLkg=926.31ohm					
.param Leakage=0.9uh					
Rlkg	3	3a	{RxLkg}		
L_Lkg	3	3a	{Leakage}	Rser=0.01mohm	
Lpri1	3a	5	99.1uH	Rser=185mohm	
Laux1	2	1	4.938uH	Rser=190mohm	
Lsec1	6	9	11.111uH	Rser=31mohm	
K Lpri1  Laux1  Lsec1        1					
.param Cprm1=23.6pf					
.param Rdmp1=102923.6ohm					
Cpri1	3	5	{Cprm1}	Rser=10mohm	
Rdmp1	3	5	{Rdmp1}		
Rg3	3	0	20meg		
Rg5	2	0	20meg		
Rg7	5	0	20meg		
Rg9	1	0	20meg		
Rg11	6	0	20meg		
Rg19	9	0	20meg		
.ends					

.subckt 750311688		5  3  2  1  6  9		
.param RxLkg=1000.84ohm					
.param Leakage=0.6uh					
Rlkg	5	5a	{RxLkg}		
L_Lkg	5	5a	{Leakage}	Rser=0.01mohm	
Lpri1	5a	3	49.4uH	Rser=80mohm	
Laux1	2	1	8uH	Rser=140mohm	
Lsec1	6	9	2uH	Rser=8mohm	
K Lpri1  Laux1  Lsec1        1					
.param Cprm1=17.97pf					
.param Rdmp1=83403ohm					
Cpri1	5	3	{Cprm1}	Rser=10mohm	
Rdmp1	5	3	{Rdmp1}		
Rg3	5	0	20meg		
Rg5	2	0	20meg		
Rg7	3	0	20meg		
Rg9	1	0	20meg		
Rg11	6	0	20meg		
Rg19	9	0	20meg		
.ends					

.subckt 750311592		1  3  2  4  5  6  12  9  11  8  10  7		
.param RxLkg=502.01ohm					
.param Leakage=0.2uh					
Rlkg	1	1a	{RxLkg*2}		
L_Lkg	1	1a	{Leakage*2}	Rser=0.01mohm	
Rlkg2	2	2a	{RxLkg*2}		
L_Lkg2	2	2a	{Leakage*2}	Rser=0.01mohm	
Lpri1	1a	3	7.8uH	Rser=17.8mohm	
Lpri2	2a	4	7.8uH	Rser=17.8mohm	
Laux1	5	6	1.58uH	Rser=18mohm	
Lsec1	12	9	8uH	Rser=48.1mohm	
Lsec2	11	8	8uH	Rser=47mohm	
Lsec3	10	7	8uH	Rser=47.4mohm	
K Lpri1 Lpri2 Laux1  Lsec1 Lsec2 Lsec3      1					
.param Cprm1=24.8pf					
.param Cprm2=24.45pf					
.param Rdmp1=20080.51ohm					
.param Rdmp2=20080.51ohm					
Cpri1	1	3	{Cprm1}	Rser=10mohm	
Cpri2	2	4	{Cprm2}	Rser=10mohm	
Rdmp1	1	3	{Rdmp1}		
Rdmp2	2	4	{Rdmp2}		
Rg3	1	0	20meg		
Rg4	2	0	20meg		
Rg5	5	0	20meg		
Rg7	3	0	20meg		
Rg8	4	0	20meg		
Rg9	6	0	20meg		
Rg11	12	0	20meg		
Rg12	11	0	20meg		
Rg13	10	0	20meg		
Rg19	9	0	20meg		
Rg20	8	0	20meg		
Rg21	7	0	20meg		
.ends					

.subckt 750311594		1  3  2  4  5  6  12  9  11  8  10  7		
.param RxLkg=995.65ohm					
.param Leakage=0.4uh					
Rlkg	1	1a	{RxLkg*2}		
L_Lkg	1	1a	{Leakage*2}	Rser=0.01mohm	
Rlkg2	2	2a	{RxLkg*2}		
L_Lkg2	2	2a	{Leakage*2}	Rser=0.01mohm	
Lpri1	1a	3	14.6uH	Rser=50mohm	
Lpri2	2a	4	14.6uH	Rser=50mohm	
Laux1	5	6	1.913uH	Rser=20mohm	
Lsec1	12	9	2.755uH	Rser=25mohm	
Lsec2	11	8	2.755uH	Rser=25mohm	
Lsec3	10	7	2.755uH	Rser=25mohm	
K Lpri1 Lpri2 Laux1  Lsec1 Lsec2 Lsec3      1					
.param Cprm1=13.45pf					
.param Cprm2=13.75pf					
.param Rdmp1=37337.01ohm					
.param Rdmp2=37337.01ohm					
Cpri1	1	3	{Cprm1}	Rser=10mohm	
Cpri2	2	4	{Cprm2}	Rser=10mohm	
Rdmp1	1	3	{Rdmp1}		
Rdmp2	2	4	{Rdmp2}		
Rg3	1	0	20meg		
Rg4	2	0	20meg		
Rg5	5	0	20meg		
Rg7	3	0	20meg		
Rg8	4	0	20meg		
Rg9	6	0	20meg		
Rg11	12	0	20meg		
Rg12	11	0	20meg		
Rg13	10	0	20meg		
Rg19	9	0	20meg		
Rg20	8	0	20meg		
Rg21	7	0	20meg		
.ends					

.subckt 750311589		1  3  2  4  5  6  12  9  11  8  10  7		
.param RxLkg=1489.72ohm					
.param Leakage=0.2uh					
Rlkg	1	1a	{RxLkg*2}		
L_Lkg	1	1a	{Leakage*2}	Rser=0.01mohm	
Rlkg2	2	2a	{RxLkg*2}		
L_Lkg2	2	2a	{Leakage*2}	Rser=0.01mohm	
Lpri1	1a	3	5.8uH	Rser=30mohm	
Lpri2	2a	4	5.8uH	Rser=30mohm	
Laux1	5	6	2.667uH	Rser=38mohm	
Lsec1	12	9	0.667uH	Rser=7mohm	
Lsec2	11	8	0.667uH	Rser=6.9mohm	
Lsec3	10	7	0.667uH	Rser=7mohm	
K Lpri1 Lpri2 Laux1  Lsec1 Lsec2 Lsec3      1					
.param Cprm1=3.755pf					
.param Cprm2=3.775pf					
.param Rdmp1=44691.58ohm					
.param Rdmp2=44691.58ohm					
Cpri1	1	3	{Cprm1}	Rser=10mohm	
Cpri2	2	4	{Cprm2}	Rser=10mohm	
Rdmp1	1	3	{Rdmp1}		
Rdmp2	2	4	{Rdmp2}		
Rg3	1	0	20meg		
Rg4	2	0	20meg		
Rg5	5	0	20meg		
Rg7	3	0	20meg		
Rg8	4	0	20meg		
Rg9	6	0	20meg		
Rg11	12	0	20meg		
Rg12	11	0	20meg		
Rg13	10	0	20meg		
Rg19	9	0	20meg		
Rg20	8	0	20meg		
Rg21	7	0	20meg		
.ends					

.subckt 750310988		1  3  8  5  11		
.param RxLkg=160.24ohm					
.param Leakage=0.2uh					
Rlkg	1	1a	{RxLkg}		
L_Lkg	1	1a	{Leakage}	Rser=0.01mohm	
Lpri1	1a	3	13.8uH	Rser=18mohm	
Lsec1	8	5	70.875uH	Rser=230mohm	
Lsec2	5	11	65.722uH	Rser=260mohm	
K Lpri1    Lsec1 Lsec2       1					
.param Cprm1=278.2pf					
.param Rdmp1=11216.45ohm					
Cpri1	1	3	{Cprm1}	Rser=10mohm	
Rdmp1	1	3	{Rdmp1}		
Rg3	1	0	20meg		
Rg7	3	0	20meg		
Rg11	8	0	20meg		
Rg19	5	0	20meg		
Rg20	11	0	20meg		
.ends					

.subckt 750311596		1  3  2  4  5  6  12  9  11  8  10  7		
.param RxLkg=682.31ohm					
.param Leakage=0.2uh					
Rlkg	1	1a	{RxLkg*2}		
L_Lkg	1	1a	{Leakage*2}	Rser=0.01mohm	
Rlkg2	2	2a	{RxLkg*2}		
L_Lkg2	2	2a	{Leakage*2}	Rser=0.01mohm	
Lpri1	1a	3	11.8uH	Rser=44mohm	
Lpri2	2a	4	11.8uH	Rser=44mohm	
Laux1	5	6	1.333uH	Rser=17mohm	
Lsec1	12	9	5.333uH	Rser=41.6mohm	
Lsec2	11	8	5.333uH	Rser=41.7mohm	
Lsec3	10	7	5.333uH	Rser=42.5mohm	
K Lpri1 Lpri2 Laux1  Lsec1 Lsec2 Lsec3      1					
.param Cprm1=8.95pf					
.param Cprm2=9pf					
.param Rdmp1=40938.67ohm					
.param Rdmp2=40938.67ohm					
Cpri1	1	3	{Cprm1}	Rser=10mohm	
Cpri2	2	4	{Cprm2}	Rser=10mohm	
Rdmp1	1	3	{Rdmp1}		
Rdmp2	2	4	{Rdmp2}		
Rg3	1	0	20meg		
Rg4	2	0	20meg		
Rg5	5	0	20meg		
Rg7	3	0	20meg		
Rg8	4	0	20meg		
Rg9	6	0	20meg		
Rg11	12	0	20meg		
Rg12	11	0	20meg		
Rg13	10	0	20meg		
Rg19	9	0	20meg		
Rg20	8	0	20meg		
Rg21	7	0	20meg		
.ends					

.subckt 750311590		1  3  2  4  5  6  12  9  11  8  10  7		
.param RxLkg=662.27ohm					
.param Leakage=0.2uh					
Rlkg	1	1a	{RxLkg*2}		
L_Lkg	1	1a	{Leakage*2}	Rser=0.01mohm	
Rlkg2	2	2a	{RxLkg*2}		
L_Lkg2	2	2a	{Leakage*2}	Rser=0.01mohm	
Lpri1	1a	3	7.8uH	Rser=20mohm	
Lpri2	2a	4	7.8uH	Rser=20mohm	
Laux1	5	6	2uH	Rser=16mohm	
Lsec1	12	9	2uH	Rser=14.4mohm	
Lsec2	11	8	2uH	Rser=14.1mohm	
Lsec3	10	7	2uH	Rser=14.3mohm	
K Lpri1 Lpri2 Laux1  Lsec1 Lsec2 Lsec3      1					
.param Cprm1=14.25pf					
.param Cprm2=13.97pf					
.param Rdmp1=26490.66ohm					
.param Rdmp2=26490.66ohm					
Cpri1	1	3	{Cprm1}	Rser=10mohm	
Cpri2	2	4	{Cprm2}	Rser=10mohm	
Rdmp1	1	3	{Rdmp1}		
Rdmp2	2	4	{Rdmp2}		
Rg3	1	0	20meg		
Rg4	2	0	20meg		
Rg5	5	0	20meg		
Rg7	3	0	20meg		
Rg8	4	0	20meg		
Rg9	6	0	20meg		
Rg11	12	0	20meg		
Rg12	11	0	20meg		
Rg13	10	0	20meg		
Rg19	9	0	20meg		
Rg20	8	0	20meg		
Rg21	7	0	20meg		
.ends					

.subckt 750311595		1  3  2  4  5  6  12  9  11  8  10  7		
.param RxLkg=557.63ohm					
.param Leakage=0.2uh					
Rlkg	1	1a	{RxLkg*2}		
L_Lkg	1	1a	{Leakage*2}	Rser=0.01mohm	
Rlkg2	2	2a	{RxLkg*2}		
L_Lkg2	2	2a	{Leakage*2}	Rser=0.01mohm	
Lpri1	1a	3	11.8uH	Rser=19.9mohm	
Lpri2	2a	4	11.8uH	Rser=19.8mohm	
Laux1	5	6	1.92uH	Rser=14mohm	
Lsec1	12	9	3uH	Rser=17mohm	
Lsec2	11	8	3uH	Rser=17.1mohm	
Lsec3	10	7	3uH	Rser=17.1mohm	
K Lpri1 Lpri2 Laux1  Lsec1 Lsec2 Lsec3      1					
.param Cprm1=13.4pf					
.param Cprm2=13.45pf					
.param Rdmp1=33457.51ohm					
.param Rdmp2=33457.51ohm					
Cpri1	1	3	{Cprm1}	Rser=10mohm	
Cpri2	2	4	{Cprm2}	Rser=10mohm	
Rdmp1	1	3	{Rdmp1}		
Rdmp2	2	4	{Rdmp2}		
Rg3	1	0	20meg		
Rg4	2	0	20meg		
Rg5	5	0	20meg		
Rg7	3	0	20meg		
Rg8	4	0	20meg		
Rg9	6	0	20meg		
Rg11	12	0	20meg		
Rg12	11	0	20meg		
Rg13	10	0	20meg		
Rg19	9	0	20meg		
Rg20	8	0	20meg		
Rg21	7	0	20meg		
.ends					

.subckt 750311783		1  3  2  4  5  6  12  9  11  8  10  7		
.param RxLkg=361.78ohm					
.param Leakage=0.17uh					
Rlkg	1	1a	{RxLkg*2}		
L_Lkg	1	1a	{Leakage*2}	Rser=0.01mohm	
Rlkg2	2	2a	{RxLkg*2}		
L_Lkg2	2	2a	{Leakage*2}	Rser=0.01mohm	
Lpri1	1a	3	19.83uH	Rser=48mohm	
Lpri2	2a	4	19.83uH	Rser=48mohm	
Laux1	5	6	2.222uH	Rser=58mohm	
Lsec1	12	9	8.889uH	Rser=47.2mohm	
Lsec2	11	8	8.889uH	Rser=46.1mohm	
Lsec3	10	7	8.889uH	Rser=45.5mohm	
K Lpri1 Lpri2 Laux1  Lsec1 Lsec2 Lsec3      1					
.param Cprm1=13.8pf					
.param Cprm2=14.25pf					
.param Rdmp1=42562.8ohm					
.param Rdmp2=42562.8ohm					
Cpri1	1	3	{Cprm1}	Rser=10mohm	
Cpri2	2	4	{Cprm2}	Rser=10mohm	
Rdmp1	1	3	{Rdmp1}		
Rdmp2	2	4	{Rdmp2}		
Rg3	1	0	20meg		
Rg4	2	0	20meg		
Rg5	5	0	20meg		
Rg7	3	0	20meg		
Rg8	4	0	20meg		
Rg9	6	0	20meg		
Rg11	12	0	20meg		
Rg12	11	0	20meg		
Rg13	10	0	20meg		
Rg19	9	0	20meg		
Rg20	8	0	20meg		
Rg21	7	0	20meg		
.ends					

.subckt 750311593		1  3  2  4  5  6  12  9  11  8  10  7		
.param RxLkg=716.73ohm					
.param Leakage=0.3uh					
Rlkg	1	1a	{RxLkg*2}		
L_Lkg	1	1a	{Leakage*2}	Rser=0.01mohm	
Rlkg2	2	2a	{RxLkg*2}		
L_Lkg2	2	2a	{Leakage*2}	Rser=0.01mohm	
Lpri1	1a	3	14.7uH	Rser=51.4mohm	
Lpri2	2a	4	14.7uH	Rser=51mohm	
Laux1	5	6	4.898uH	Rser=30mohm	
Lsec1	12	9	1.224uH	Rser=14mohm	
Lsec2	11	8	1.224uH	Rser=13.6mohm	
Lsec3	10	7	1.224uH	Rser=13.9mohm	
K Lpri1 Lpri2 Laux1  Lsec1 Lsec2 Lsec3      1					
.param Cprm1=14.6pf					
.param Cprm2=14.625pf					
.param Rdmp1=35836.4ohm					
.param Rdmp2=35836.4ohm					
Cpri1	1	3	{Cprm1}	Rser=10mohm	
Cpri2	2	4	{Cprm2}	Rser=10mohm	
Rdmp1	1	3	{Rdmp1}		
Rdmp2	2	4	{Rdmp2}		
Rg3	1	0	20meg		
Rg4	2	0	20meg		
Rg5	5	0	20meg		
Rg7	3	0	20meg		
Rg8	4	0	20meg		
Rg9	6	0	20meg		
Rg11	12	0	20meg		
Rg12	11	0	20meg		
Rg13	10	0	20meg		
Rg19	9	0	20meg		
Rg20	8	0	20meg		
Rg21	7	0	20meg		
.ends					

.subckt 750311625		3  5  2  1  6  9		
.param RxLkg=1371.13ohm					
.param Leakage=0.35uh					
Rlkg	3	3a	{RxLkg}		
L_Lkg	3	3a	{Leakage}	Rser=0.01mohm	
Lpri1	3a	5	8.65uH	Rser=43mohm	
Laux1	2	1	2.848uH	Rser=130mohm	
Lsec1	6	9	0.563uH	Rser=5mohm	
K Lpri1  Laux1  Lsec1        1					
.param Cprm1=18.1pf					
.param Rdmp1=35257.53ohm					
Cpri1	3	5	{Cprm1}	Rser=10mohm	
Rdmp1	3	5	{Rdmp1}		
Rg3	3	0	20meg		
Rg5	2	0	20meg		
Rg7	5	0	20meg		
Rg9	1	0	20meg		
Rg11	6	0	20meg		
Rg19	9	0	20meg		
.ends					

.subckt 750311564		3  5  2  1  6  9		
.param RxLkg=508.34ohm					
.param Leakage=0.12uh					
Rlkg	3	3a	{RxLkg}		
L_Lkg	3	3a	{Leakage}	Rser=0.01mohm	
Lpri1	3a	5	8.95uH	Rser=36mohm	
Laux1	2	1	3.086uH	Rser=92mohm	
Lsec1	6	9	1.008uH	Rser=7mohm	
K Lpri1  Laux1  Lsec1        1					
.param Cprm1=15.36pf					
.param Rdmp1=38421.81ohm					
Cpri1	3	5	{Cprm1}	Rser=10mohm	
Rdmp1	3	5	{Rdmp1}		
Rg3	3	0	20meg		
Rg5	2	0	20meg		
Rg7	5	0	20meg		
Rg9	1	0	20meg		
Rg11	6	0	20meg		
Rg19	9	0	20meg		
.ends					

.subckt 750311456		3  5  2  1  6  9		
.param RxLkg=1097.89ohm					
.param Leakage=0.9uh					
Rlkg	3	3a	{RxLkg}		
L_Lkg	3	3a	{Leakage}	Rser=0.01mohm	
Lpri1	3a	5	99.1uH	Rser=225mohm	
Laux1	2	1	4.938uH	Rser=240mohm	
Lsec1	6	9	11.111uH	Rser=31mohm	
K Lpri1  Laux1  Lsec1        1					
.param Cprm1=16.8pf					
.param Rdmp1=121987.41ohm					
Cpri1	3	5	{Cprm1}	Rser=10mohm	
Rdmp1	3	5	{Rdmp1}		
Rg3	3	0	20meg		
Rg5	2	0	20meg		
Rg7	5	0	20meg		
Rg9	1	0	20meg		
Rg11	6	0	20meg		
Rg19	9	0	20meg		
.ends					

.subckt 750311305		3  4  2  1  5  7		
.param RxLkg=1955.94ohm					
.param Leakage=1.2uh					
Rlkg	3	3a	{RxLkg}		
L_Lkg	3	3a	{Leakage}	Rser=0.01mohm	
Lpri1	3a	4	48.8uH	Rser=175mohm	
Laux1	2	1	2.469uH	Rser=185mohm	
Lsec1	5	7	5.556uH	Rser=28mohm	
K Lpri1  Laux1  Lsec1        1					
.param Cprm1=18.82pf					
.param Rdmp1=81497.63ohm					
Cpri1	3	4	{Cprm1}	Rser=10mohm	
Rdmp1	3	4	{Rdmp1}		
Rg3	3	0	20meg		
Rg5	2	0	20meg		
Rg7	4	0	20meg		
Rg9	1	0	20meg		
Rg11	5	0	20meg		
Rg19	7	0	20meg		
.ends					

.subckt 750310559		3  4  2  1  6  7		
.param RxLkg=1304.54ohm					
.param Leakage=0.44uh					
Rlkg	3	3a	{RxLkg}		
L_Lkg	3	3a	{Leakage}	Rser=0.01mohm	
Lpri1	3a	4	23.56uH	Rser=51mohm	
Laux1	2	1	1.5uH	Rser=64mohm	
Lsec1	6	7	1.5uH	Rser=12.3mohm	
K Lpri1  Laux1  Lsec1        1					
.param Cprm1=11.85pf					
.param Rdmp1=71156.77ohm					
Cpri1	3	4	{Cprm1}	Rser=10mohm	
Rdmp1	3	4	{Rdmp1}		
Rg3	3	0	20meg		
Rg5	2	0	20meg		
Rg7	4	0	20meg		
Rg9	1	0	20meg		
Rg11	6	0	20meg		
Rg19	7	0	20meg		
.ends					

.subckt 750311306		3  4  2  1  5  7		
.param RxLkg=1969.9ohm					
.param Leakage=1.75uh					
Rlkg	3	3a	{RxLkg}		
L_Lkg	3	3a	{Leakage}	Rser=0.01mohm	
Lpri1	3a	4	98.25uH	Rser=285mohm	
Laux1	2	1	4.938uH	Rser=225mohm	
Lsec1	5	7	11.111uH	Rser=46mohm	
K Lpri1  Laux1  Lsec1        1					
.param Cprm1=19.73pf					
.param Rdmp1=112565.78ohm					
Cpri1	3	4	{Cprm1}	Rser=10mohm	
Rdmp1	3	4	{Rdmp1}		
Rg3	3	0	20meg		
Rg5	2	0	20meg		
Rg7	4	0	20meg		
Rg9	1	0	20meg		
Rg11	5	0	20meg		
Rg19	7	0	20meg		
.ends					

.subckt 750311675		3  4  2  1  5  7		
.param RxLkg=216.67ohm					
.param Leakage=0.13uh					
Rlkg	3	3a	{RxLkg}		
L_Lkg	3	3a	{Leakage}	Rser=0.01mohm	
Lpri1	3a	4	24.87uH	Rser=54mohm	
Laux1	2	1	2.778uH	Rser=72mohm	
Lsec1	5	7	2.778uH	Rser=9mohm	
K Lpri1  Laux1  Lsec1        1					
.param Cprm1=36pf					
.param Rdmp1=41666.63ohm					
Cpri1	3	4	{Cprm1}	Rser=10mohm	
Rdmp1	3	4	{Rdmp1}		
Rg3	3	0	20meg		
Rg5	2	0	20meg		
Rg7	4	0	20meg		
Rg9	1	0	20meg		
Rg11	5	0	20meg		
Rg19	7	0	20meg		
.ends					

.subckt 750311307		3  4  2  1  5  7		
.param RxLkg=2131.52ohm					
.param Leakage=2uh					
Rlkg	3	3a	{RxLkg}		
L_Lkg	3	3a	{Leakage}	Rser=0.01mohm	
Lpri1	3a	4	98uH	Rser=290mohm	
Laux1	2	1	2.778uH	Rser=173mohm	
Lsec1	5	7	25uH	Rser=104mohm	
K Lpri1  Laux1  Lsec1        1					
.param Cprm1=22.01pf					
.param Rdmp1=106576.02ohm					
Cpri1	3	4	{Cprm1}	Rser=10mohm	
Rdmp1	3	4	{Rdmp1}		
Rg3	3	0	20meg		
Rg5	2	0	20meg		
Rg7	4	0	20meg		
Rg9	1	0	20meg		
Rg11	5	0	20meg		
Rg19	7	0	20meg		
.ends					

.subckt 750310564		3  4  2  1  8  6  5  7		
.param RxLkg=688.64ohm					
.param Leakage=0.44uh					
Rlkg	3	3a	{RxLkg}		
L_Lkg	3	3a	{Leakage}	Rser=0.01mohm	
Lpri1	3a	4	62.56uH	Rser=115mohm	
Laux1	2	1	7uH	Rser=95mohm	
Lsec1	8	6	7uH	Rser=57mohm	
Lsec2	5	7	7uH	Rser=40mohm	
K Lpri1  Laux1  Lsec1 Lsec2       1					
.param Cprm1=16.2pf					
.param Rdmp1=98601.14ohm					
Cpri1	3	4	{Cprm1}	Rser=10mohm	
Rdmp1	3	4	{Rdmp1}		
Rg3	3	0	20meg		
Rg5	2	0	20meg		
Rg7	4	0	20meg		
Rg9	1	0	20meg		
Rg11	8	0	20meg		
Rg12	5	0	20meg		
Rg19	6	0	20meg		
Rg20	7	0	20meg		
.ends					

.subckt 750311304		3  4  2  1  5  7		
.param RxLkg=1491.46ohm					
.param Leakage=0.85uh					
Rlkg	3	3a	{RxLkg}		
L_Lkg	3	3a	{Leakage}	Rser=0.01mohm	
Lpri1	3a	4	49.15uH	Rser=146mohm	
Laux1	2	1	7.031uH	Rser=255mohm	
Lsec1	5	7	3.125uH	Rser=12mohm	
K Lpri1  Laux1  Lsec1        1					
.param Cprm1=16.24pf					
.param Rdmp1=87732.74ohm					
Cpri1	3	4	{Cprm1}	Rser=10mohm	
Rdmp1	3	4	{Rdmp1}		
Rg3	3	0	20meg		
Rg5	2	0	20meg		
Rg7	4	0	20meg		
Rg9	1	0	20meg		
Rg11	5	0	20meg		
Rg19	7	0	20meg		
.ends					

.subckt 750311303		3  4  2  1  5  7		
.param RxLkg=1569.53ohm					
.param Leakage=0.8uh					
Rlkg	3	3a	{RxLkg}		
L_Lkg	3	3a	{Leakage}	Rser=0.01mohm	
Lpri1	3a	4	49.2uH	Rser=106mohm	
Laux1	2	1	8uH	Rser=203mohm	
Lsec1	5	7	2uH	Rser=9mohm	
K Lpri1  Laux1  Lsec1        1					
.param Cprm1=12.99pf					
.param Rdmp1=98095.92ohm					
Cpri1	3	4	{Cprm1}	Rser=10mohm	
Rdmp1	3	4	{Rdmp1}		
Rg3	3	0	20meg		
Rg5	2	0	20meg		
Rg7	4	0	20meg		
Rg9	1	0	20meg		
Rg11	5	0	20meg		
Rg19	7	0	20meg		
.ends					

.subckt 750310563		3  4  2  1  5  7		
.param RxLkg=582.41ohm					
.param Leakage=0.38uh					
Rlkg	3	3a	{RxLkg}		
L_Lkg	3	3a	{Leakage}	Rser=0.01mohm	
Lpri1	3a	4	24.62uH	Rser=60mohm	
Laux1	2	1	6.25uH	Rser=275mohm	
Lsec1	5	7	25uH	Rser=60mohm	
K Lpri1  Laux1  Lsec1        1					
.param Cprm1=42.57pf					
.param Rdmp1=38316.75ohm					
Cpri1	3	4	{Cprm1}	Rser=10mohm	
Rdmp1	3	4	{Rdmp1}		
Rg3	3	0	20meg		
Rg5	2	0	20meg		
Rg7	4	0	20meg		
Rg9	1	0	20meg		
Rg11	5	0	20meg		
Rg19	7	0	20meg		
.ends					

.subckt 750310471		3  4  2  1  5  7		
.param RxLkg=800.85ohm					
.param Leakage=0.35uh					
Rlkg	3	3a	{RxLkg}		
L_Lkg	3	3a	{Leakage}	Rser=0.01mohm	
Lpri1	3a	4	24.65uH	Rser=50mohm	
Laux1	2	1	2.778uH	Rser=40mohm	
Lsec1	5	7	2.778uH	Rser=10mohm	
K Lpri1  Laux1  Lsec1        1					
.param Cprm1=19.1pf					
.param Rdmp1=57203.53ohm					
Cpri1	3	4	{Cprm1}	Rser=10mohm	
Rdmp1	3	4	{Rdmp1}		
Rg3	3	0	20meg		
Rg5	2	0	20meg		
Rg7	4	0	20meg		
Rg9	1	0	20meg		
Rg11	5	0	20meg		
Rg19	7	0	20meg		
.ends					

.subckt 750311598		1  3  2  4  5  6  12  9  11  8  10  7		
.param RxLkg=1427.13ohm					
.param Leakage=0.3uh					
Rlkg	1	1a	{RxLkg*2}		
L_Lkg	1	1a	{Leakage*2}	Rser=0.01mohm	
Rlkg2	2	2a	{RxLkg*2}		
L_Lkg2	2	2a	{Leakage*2}	Rser=0.01mohm	
Lpri1	1a	3	8uH	Rser=30mohm	
Lpri2	2a	4	8uH	Rser=35.1mohm	
Laux1	5	6	1.328uH	Rser=49mohm	
Lsec1	12	9	2.075uH	Rser=16.7mohm	
Lsec2	11	8	2.075uH	Rser=16.6mohm	
Lsec3	10	7	2.075uH	Rser=18.2mohm	
K Lpri1 Lpri2 Laux1  Lsec1 Lsec2 Lsec3      1					
.param Cprm1=6.655pf					
.param Cprm2=6.885pf					
.param Rdmp1=39483.88ohm					
.param Rdmp2=39483.88ohm					
Cpri1	1	3	{Cprm1}	Rser=10mohm	
Cpri2	2	4	{Cprm2}	Rser=10mohm	
Rdmp1	1	3	{Rdmp1}		
Rdmp2	2	4	{Rdmp2}		
Rg3	1	0	20meg		
Rg4	2	0	20meg		
Rg5	5	0	20meg		
Rg7	3	0	20meg		
Rg8	4	0	20meg		
Rg9	6	0	20meg		
Rg11	12	0	20meg		
Rg12	11	0	20meg		
Rg13	10	0	20meg		
Rg19	9	0	20meg		
Rg20	8	0	20meg		
Rg21	7	0	20meg		
.ends					

.subckt 750311692		3  4  8  6  7  5		
.param RxLkg=401.37ohm					
.param Leakage=1.4uh					
Rlkg	3	3a	{RxLkg}		
L_Lkg	3	3a	{Leakage}	Rser=0.01mohm	