**************************************************
* Manufacturer:          Wurth Elektronik 
* Kinds:                 SMT Power Inductor
* Matchcode:             WE-PD
* Library Type:          LTspice
* Version:               rev22a
* Created/modified by:   Ella
* Date and Time:         6/10/2022
* Team:                  eiSos EDA Service  
* Contact:               libraries@we-online.com
**************************************************
* Copyright(C) 2022 Würth Elektronik eiSos GmbH & Co. KG
* All Rights Reserved.
**************************************************
* Disclaimer: While Würth Elektronik eiSos has made every reasonable effort to ensure the accuracy
* of the simulation models provided, Würth Elektronik eiSos does not guarantee the exemption of error on
* the simulation models, nor does Würth Elektronik eiSos guarantee that the simulation model is current.
* Würth Elektronik eiSos reserves the right to make any adjustments at any time without notice.
* Würth Elektronik eiSos expressly disclaims all implied warranties regarding this simulation model.
**************************************************
.subckt 1030_7447713015_1.5u 1 2
Rp 1 2 672.674
Cp 1 2 3.599p
Rs 1 N3 0.0137
L1 N3 2 1.411u
.ends 1030_7447713015_1.5u
*******
.subckt 1030_7447713022_2.2u 1 2
Rp 1 2 945.477
Cp 1 2 2.803p
Rs 1 N3 0.0168
L1 N3 2 2.074u
.ends 1030_7447713022_2.2u
*******
.subckt 1030_7447713033_3.3u 1 2
Rp 1 2 1251
Cp 1 2 3.775p
Rs 1 N3 0.0204
L1 N3 2 3.005u
.ends 1030_7447713033_3.3u
*******
.subckt 1030_7447713047_4.7u 1 2
Rp 1 2 1701
Cp 1 2 4.595p
Rs 1 N3 0.026
L1 N3 2 4.271u
.ends 1030_7447713047_4.7u
*******
.subckt 1030_7447713082_8.2u 1 2
Rp 1 2 3617
Cp 1 2 4.502p
Rs 1 N3 0.041
L1 N3 2 7.276u
.ends 1030_7447713082_8.2u
*******
.subckt 1030_7447713100_10u 1 2
Rp 1 2 3554
Cp 1 2 4.934p
Rs 1 N3 0.0515
L1 N3 2 9.513u
.ends 1030_7447713100_10u
*******
.subckt 1030_7447713150_15u 1 2
Rp 1 2 5482
Cp 1 2 5.206p
Rs 1 N3 0.074
L1 N3 2 14.23u
.ends 1030_7447713150_15u
*******
.subckt 1030_7447713220_22u 1 2
Rp 1 2 8834
Cp 1 2 4.433p
Rs 1 N3 0.111
L1 N3 2 22.176u
.ends 1030_7447713220_22u
*******
.subckt 1030_7447713330_33u 1 2
Rp 1 2 12173
Cp 1 2 5.094p
Rs 1 N3 0.17
L1 N3 2 33.747u
.ends 1030_7447713330_33u
*******
.subckt 1030_7447713470_47u 1 2
Rp 1 2 13604
Cp 1 2 5.295p
Rs 1 N3 0.207
L1 N3 2 44.871u
.ends 1030_7447713470_47u
*******
.subckt 1030_7447713680_68u 1 2
Rp 1 2 19479
Cp 1 2 5.574p
Rs 1 N3 0.275
L1 N3 2 62.353u
.ends 1030_7447713680_68u
*******
.subckt 1030_7447713820_82u 1 2
Rp 1 2 25005
Cp 1 2 4.979p
Rs 1 N3 0.349
L1 N3 2 77.094u
.ends 1030_7447713820_82u
*******
.subckt 1030_7447713101_100u 1 2
Rp 1 2 30774
Cp 1 2 5.57p
Rs 1 N3 0.398
L1 N3 2 90.236u
.ends 1030_7447713101_100u
*******
.subckt 1030_7447713121_120u 1 2
Rp 1 2 40013
Cp 1 2 6.019p
Rs 1 N3 0.498
L1 N3 2 108.186u
.ends 1030_7447713121_120u
*******
.subckt 1030_7447713151_150u 1 2
Rp 1 2 46224
Cp 1 2 6.026p
Rs 1 N3 0.57
L1 N3 2 131.081u
.ends 1030_7447713151_150u
*******
.subckt 1030_7447713331_330u 1 2
Rp 1 2 72960
Cp 1 2 6.929p
Rs 1 N3 1.23
L1 N3 2 300.245u
.ends 1030_7447713331_330u
*******
.subckt 1030_7447713471_470u 1 2
Rp 1 2 88623
Cp 1 2 7.58p
Rs 1 N3 1.85
L1 N3 2 453.905u
.ends 1030_7447713471_470u
*******
.subckt 1030_7447713102_1000u 1 2
Rp 1 2 121895
Cp 1 2 8.544p
Rs 1 N3 4
L1 N3 2 957.63u
.ends 1030_7447713102_1000u
*******
.subckt 1050_7447714015_1.5u 1 2
Rp 1 2 696.48
Cp 1 2 3.69p
Rs 1 N3 0.00555
L1 N3 2 1.319u
.ends 1050_7447714015_1.5u
*******
.subckt 1050_7447714022_2.2u 1 2
Rp 1 2 1088
Cp 1 2 4.313p
Rs 1 N3 0.0068
L1 N3 2 2.019u
.ends 1050_7447714022_2.2u
*******
.subckt 1050_7447714033_3.3u 1 2
Rp 1 2 1748
Cp 1 2 4.94p
Rs 1 N3 0.0089
L1 N3 2 2.946u
.ends 1050_7447714033_3.3u
*******
.subckt 1050_7447714047_4.7u 1 2
Rp 1 2 2469
Cp 1 2 6.027p
Rs 1 N3 0.0104
L1 N3 2 4.148u
.ends 1050_7447714047_4.7u
*******
.subckt 1050_7447714056_5.6u 1 2
Rp 1 2 3639
Cp 1 2 6.084p
Rs 1 N3 0.012
L1 N3 2 5.401u
.ends 1050_7447714056_5.6u
*******
.subckt 1050_7447714068_6.8u 1 2
Rp 1 2 4349
Cp 1 2 7.2p
Rs 1 N3 0.0185
L1 N3 2 6.801u
.ends 1050_7447714068_6.8u
*******
.subckt 1050_7447714100_10u 1 2
Rp 1 2 6553
Cp 1 2 5.759p
Rs 1 N3 0.023
L1 N3 2 10.478u
.ends 1050_7447714100_10u
*******
.subckt 1050_7447714150_15u 1 2
Rp 1 2 9843
Cp 1 2 7.012p
Rs 1 N3 0.036
L1 N3 2 14.644u
.ends 1050_7447714150_15u
*******
.subckt 1050_7447714220_22u 1 2
Rp 1 2 12907
Cp 1 2 8.49p
Rs 1 N3 0.042
L1 N3 2 19.015u
.ends 1050_7447714220_22u
*******
.subckt 1050_7447714270_27u 1 2
Rp 1 2 16222
Cp 1 2 5.184p
Rs 1 N3 0.063
L1 N3 2 25.048u
.ends 1050_7447714270_27u
*******
.subckt 1050_7447714330_33u 1 2
Rp 1 2 18157
Cp 1 2 6.736p
Rs 1 N3 0.066
L1 N3 2 30.715u
.ends 1050_7447714330_33u
*******
.subckt 1050_7447714470_47u 1 2
Rp 1 2 25556
Cp 1 2 7.453p
Rs 1 N3 0.0825
L1 N3 2 45.428u
.ends 1050_7447714470_47u
*******
.subckt 1050_7447714560_56u 1 2
Rp 1 2 25720
Cp 1 2 6.476p
Rs 1 N3 0.101
L1 N3 2 52.405u
.ends 1050_7447714560_56u
*******
.subckt 1050_7447714680_68u 1 2
Rp 1 2 32590
Cp 1 2 6.803p
Rs 1 N3 0.11
L1 N3 2 61.871u
.ends 1050_7447714680_68u
*******
.subckt 1050_7447714820_82u 1 2
Rp 1 2 33435
Cp 1 2 7.917p
Rs 1 N3 0.147
L1 N3 2 78.213u
.ends 1050_7447714820_82u
*******
.subckt 1050_7447714101_100u 1 2
Rp 1 2 33721
Cp 1 2 8.231p
Rs 1 N3 0.165
L1 N3 2 93.461u
.ends 1050_7447714101_100u
*******
.subckt 1050_7447714151_150u 1 2
Rp 1 2 53063
Cp 1 2 9.967p
Rs 1 N3 0.251
L1 N3 2 138.62u
.ends 1050_7447714151_150u
*******
.subckt 1050_7447714221_220u 1 2
Rp 1 2 61488
Cp 1 2 6.439p
Rs 1 N3 0.366
L1 N3 2 196.516u
.ends 1050_7447714221_220u
*******
.subckt 1050_7447714331_330u 1 2
Rp 1 2 79107
Cp 1 2 9.655p
Rs 1 N3 0.655
L1 N3 2 325.418u
.ends 1050_7447714331_330u
*******
.subckt 1050_7447714471_470u 1 2
Rp 1 2 77358
Cp 1 2 10.702p
Rs 1 N3 0.96
L1 N3 2 441.117u
.ends 1050_7447714471_470u
*******
.subckt 1050_7447714681_680u 1 2
Rp 1 2 92097
Cp 1 2 11.336p
Rs 1 N3 1.22
L1 N3 2 631.718u
.ends 1050_7447714681_680u
*******
.subckt 1050_7447714102_1000u 1 2
Rp 1 2 180643
Cp 1 2 7.59p
Rs 1 N3 1.86
L1 N3 2 908.799u
.ends 1050_7447714102_1000u
*******
.subckt 1210_7447709001_1u 1 2
Rp 1 2 2176.6207769
Cp 1 2 2.24744833282p
Rs 1 N3 0.0038
L1 N3 2 0.888311902286u
.ends 1210_7447709001_1u
*******
.subckt 1210_7447709002_2.2u 1 2
Rp 1 2 4137.02857985
Cp 1 2 2.99089969563p
Rs 1 N3 0.0049
L1 N3 2 2.04316893219u
.ends 1210_7447709002_2.2u
*******
.subckt 1210_7447709003_3.5u 1 2
Rp 1 2 4975.69579666
Cp 1 2 4.15650993146p
Rs 1 N3 0.0059
L1 N3 2 3.04371144857u
.ends 1210_7447709003_3.5u
*******
.subckt 1210_7447709004_4.7u 1 2
Rp 1 2 5047
Cp 1 2 6.87p
Rs 1 N3 0.0074
L1 N3 2 3.84u
.ends 1210_7447709004_4.7u
*******
.subckt 1210_7447709006_6.8u 1 2
Rp 1 2 8250.62950059
Cp 1 2 7.73395856798p
Rs 1 N3 0.0091
L1 N3 2 6.30631538292u
.ends 1210_7447709006_6.8u
*******
.subckt 1210_7447709100_10u 1 2
Rp 1 2 11546.6960325
Cp 1 2 7.27315529525p
Rs 1 N3 0.0129
L1 N3 2 9.52800542568u
.ends 1210_7447709100_10u
*******
.subckt 1210_7447709150_15u 1 2
Rp 1 2 15765.1384684
Cp 1 2 7.13382716865p
Rs 1 N3 0.0207
L1 N3 2 12.6985405468u
.ends 1210_7447709150_15u
*******
.subckt 1210_7447709220_22u 1 2
Rp 1 2 13263
Cp 1 2 14.26p
Rs 1 N3 0.0233
L1 N3 2 18.65u
.ends 1210_7447709220_22u
*******
.subckt 1210_7447709270_27u 1 2
Rp 1 2 29129.0712954
Cp 1 2 13.9416435215p
Rs 1 N3 0.03
L1 N3 2 23.0051014632u
.ends 1210_7447709270_27u
*******
.subckt 1210_7447709330_33u 1 2
Rp 1 2 30639.6783453
Cp 1 2 13.0681350616p
Rs 1 N3 0.0368
L1 N3 2 28.0782778599u
.ends 1210_7447709330_33u
*******
.subckt 1210_7447709390_39u 1 2
Rp 1 2 36480.6887288
Cp 1 2 16.6752475935p
Rs 1 N3 0.0439
L1 N3 2 42.4250261651u
.ends 1210_7447709390_39u
*******
.subckt 1210_7447709470_47u 1 2
Rp 1 2 43179.7160489
Cp 1 2 15.5579429534p
Rs 1 N3 0.0459
L1 N3 2 38.0441176839u
.ends 1210_7447709470_47u
*******
.subckt 1210_7447709680_68u 1 2
Rp 1 2 65987.2147297
Cp 1 2 15.6960659854p
Rs 1 N3 0.0686
L1 N3 2 55.0105245384u
.ends 1210_7447709680_68u
*******
.subckt 1210_7447709820_82u 1 2
Rp 1 2 39761
Cp 1 2 15.516p
Rs 1 N3 0.0905
L1 N3 2 79.162u
.ends 1210_7447709820_82u
*******
.subckt 1210_7447709101_100u 1 2
Rp 1 2 59146
Cp 1 2 18.224p
Rs 1 N3 0.1
L1 N3 2 84u
.ends 1210_7447709101_100u
*******
.subckt 1210_7447709151_150u 1 2
Rp 1 2 82598.270635
Cp 1 2 14.2781138855p
Rs 1 N3 0.151
L1 N3 2 84.3125748608u
.ends 1210_7447709151_150u
*******
.subckt 1210_7447709221_220u 1 2
Rp 1 2 91179.4137734
Cp 1 2 16.3697778895p
Rs 1 N3 0.193
L1 N3 2 125.657039982u
.ends 1210_7447709221_220u
*******
.subckt 1210_7447709271_270u 1 2
Rp 1 2 99265.0050729
Cp 1 2 18.0619283051p
Rs 1 N3 0.248
L1 N3 2 189.016138029u
.ends 1210_7447709271_270u
*******
.subckt 1210_7447709331_330u 1 2
Rp 1 2 90525.0521166
Cp 1 2 20.1460207887p
Rs 1 N3 0.363
L1 N3 2 217.992497883u
.ends 1210_7447709331_330u
*******
.subckt 1210_7447709471_470u 1 2
Rp 1 2 105258.807914
Cp 1 2 20.5928638778p
Rs 1 N3 0.437
L1 N3 2 276.957578674u
.ends 1210_7447709471_470u
*******
.subckt 1210_7447709681_680u 1 2
Rp 1 2 120411.679361
Cp 1 2 19.3385293438p
Rs 1 N3 0.66
L1 N3 2 367.313466131u
.ends 1210_7447709681_680u
*******
.subckt 1210_7447709821_820u 1 2
Rp 1 2 117117.877304
Cp 1 2 21.7929604862p
Rs 1 N3 0.815
L1 N3 2 568.809364554u
.ends 1210_7447709821_820u
*******
.subckt 1210_7447709102_1000u 1 2
Rp 1 2 103052
Cp 1 2 21.42p
Rs 1 N3 0.93
L1 N3 2 856.5u
.ends 1210_7447709102_1000u
*******
.subckt 1210_7447709152_1500u 1 2
Rp 1 2 171070
Cp 1 2 25.56p
Rs 1 N3 1.8
L1 N3 2 1303u
.ends 1210_7447709152_1500u
*******
.subckt 1210_7447709222_2200u 1 2
Rp 1 2 200000
Cp 1 2 30p
Rs 1 N3 3.25
L1 N3 2 1809u
.ends 1210_7447709222_2200u
*******
.subckt 1245_7447715906_0.6u 1 2
Rp 1 2 1308.28965673
Cp 1 2 2.223341372p
Rs 1 N3 0.0045
L1 N3 2 0.464397869128u
.ends 1245_7447715906_0.6u
*******
.subckt 1245_7447715910_1u 1 2
Rp 1 2 2427.45429051
Cp 1 2 3.07393402306p
Rs 1 N3 0.0055
L1 N3 2 0.874032032284u
.ends 1245_7447715910_1u
*******
.subckt 1245_7447715001_1.8u 1 2
Rp 1 2 3556.81358598
Cp 1 2 3.49530401983p
Rs 1 N3 0.0075
L1 N3 2 1.5713563659u
.ends 1245_7447715001_1.8u
*******
.subckt 1245_7447715002_2.5u 1 2
Rp 1 2 3968.08010791
Cp 1 2 3.66763216981p
Rs 1 N3 0.0085
L1 N3 2 2.51732267391u
.ends 1245_7447715002_2.5u
*******
.subckt 1245_7447715003_3.3u 1 2
Rp 1 2 6578.47426969
Cp 1 2 4.39654551772p
Rs 1 N3 0.0115
L1 N3 2 2.88851569677u
.ends 1245_7447715003_3.3u
*******
.subckt 1245_7447715004_4.7u 1 2
Rp 1 2 8219.38035441
Cp 1 2 4.06523390514p
Rs 1 N3 0.0135
L1 N3 2 3.75692461883u
.ends 1245_7447715004_4.7u
*******
.subckt 1245_7447715006_6.8u 1 2
Rp 1 2 11078.5420015
Cp 1 2 4.29910927901p
Rs 1 N3 0.02
L1 N3 2 6.87526199363u
.ends 1245_7447715006_6.8u
*******
.subckt 1245_7447715100_10u 1 2
Rp 1 2 15515.0080042
Cp 1 2 4.83057400324p
Rs 1 N3 0.025
L1 N3 2 9.01972200031u
.ends 1245_7447715100_10u
*******
.subckt 1245_7447715120_12u 1 2
Rp 1 2 16500.8527686
Cp 1 2 4.85170401496p
Rs 1 N3 0.03
L1 N3 2 10.705444972u
.ends 1245_7447715120_12u
*******
.subckt 1245_7447715180_18u 1 2
Rp 1 2 20313.2567777
Cp 1 2 5.45940158137p
Rs 1 N3 0.037
L1 N3 2 13.0855292701u
.ends 1245_7447715180_18u
*******
.subckt 1245_7447715220_22u 1 2
Rp 1 2 26167.9513606
Cp 1 2 5.27045194002p
Rs 1 N3 0.045
L1 N3 2 17.3598966267u
.ends 1245_7447715220_22u
*******
.subckt 1245_7447715330_33u 1 2
Rp 1 2 35410.3838309
Cp 1 2 5.06743999531p
Rs 1 N3 0.075
L1 N3 2 25.7301392598u
.ends 1245_7447715330_33u
*******
.subckt 1245_7447715470_47u 1 2
Rp 1 2 52874.4211867
Cp 1 2 5.23820249993p
Rs 1 N3 0.105
L1 N3 2 37.929937389u
.ends 1245_7447715470_47u
*******
.subckt 1245_7447715101_100u 1 2
Rp 1 2 96148.7175854
Cp 1 2 5.79622090066p
Rs 1 N3 0.25
L1 N3 2 80.390308916u
.ends 1245_7447715101_100u
*******
.subckt 1245_7447715221_220u 1 2
Rp 1 2 130584.615405
Cp 1 2 5.82141733606p
Rs 1 N3 0.46
L1 N3 2 167.025850479u
.ends 1245_7447715221_220u
*******
.subckt 1260_744771001_1.5u 1 2
Rp 1 2 2665
Cp 1 2 4.377p
Rs 1 N3 0.004
L1 N3 2 1.402u
.ends 1260_744771001_1.5u
*******
.subckt 1260_7447706015_1.5u 1 2
Rp 1 2 665
Cp 1 2 7.3p
Rs 1 N3 0.005
L1 N3 2 1.363u
.ends 1260_7447706015_1.5u
*******
.subckt 1260_744771002_2.2u 1 2
Rp 1 2 3696
Cp 1 2 4.203p
Rs 1 N3 0.005
L1 N3 2 2.069u
.ends 1260_744771002_2.2u
*******
.subckt 1260_7447706022_2.2u 1 2
Rp 1 2 1109
Cp 1 2 6.96p
Rs 1 N3 0.0062
L1 N3 2 2.251u
.ends 1260_7447706022_2.2u
*******
.subckt 1260_7447706033_3.3u 1 2
Rp 1 2 1721
Cp 1 2 7.452p
Rs 1 N3 0.0075
L1 N3 2 3.28u
.ends 1260_7447706033_3.3u
*******
.subckt 1260_744771003_3.5u 1 2
Rp 1 2 4638
Cp 1 2 5.297p
Rs 1 N3 0.0055
L1 N3 2 2.724u
.ends 1260_744771003_3.5u
*******
.subckt 1260_744771004_4.7u 1 2
Rp 1 2 5213
Cp 1 2 5.126p
Rs 1 N3 0.0085
L1 N3 2 3.746u
.ends 1260_744771004_4.7u
*******
.subckt 1260_7447706047_4.7u 1 2
Rp 1 2 2353
Cp 1 2 7.333p
Rs 1 N3 0.009
L1 N3 2 4.594u
.ends 1260_7447706047_4.7u
*******
.subckt 1260_7447706062_6.2u 1 2
Rp 1 2 3316
Cp 1 2 8.206p
Rs 1 N3 0.012
L1 N3 2 6.122u
.ends 1260_7447706062_6.2u
*******
.subckt 1260_744771006_6.8u 1 2
Rp 1 2 8031
Cp 1 2 5.64p
Rs 1 N3 0.014
L1 N3 2 6.463u
.ends 1260_744771006_6.8u
*******
.subckt 1260_744771008_8.2u 1 2
Rp 1 2 9391
Cp 1 2 5.647p
Rs 1 N3 0.0155
L1 N3 2 6.458u
.ends 1260_744771008_8.2u
*******
.subckt 1260_74477110_10u 1 2
Rp 1 2 11359
Cp 1 2 5.93p
Rs 1 N3 0.0185
L1 N3 2 9.753u
.ends 1260_74477110_10u
*******
.subckt 1260_7447706100_10u 1 2
Rp 1 2 5174
Cp 1 2 8.558p
Rs 1 N3 0.0163
L1 N3 2 9.54u
.ends 1260_7447706100_10u
*******
.subckt 1260_744771112_12u 1 2
Rp 1 2 13114
Cp 1 2 6.319p
Rs 1 N3 0.02
L1 N3 2 11.334u
.ends 1260_744771112_12u
*******
.subckt 1260_744771115_15u 1 2
Rp 1 2 13381
Cp 1 2 6.382p
Rs 1 N3 0.022
L1 N3 2 12.996u
.ends 1260_744771115_15u
*******
.subckt 1260_7447706150_15u 1 2
Rp 1 2 7898
Cp 1 2 9.234p
Rs 1 N3 0.0229
L1 N3 2 14.117u
.ends 1260_7447706150_15u
*******
.subckt 1260_744771118_18u 1 2
Rp 1 2 14024
Cp 1 2 5.88p
Rs 1 N3 0.024
L1 N3 2 14.994u
.ends 1260_744771118_18u
*******
.subckt 1260_744771122_22u 1 2
Rp 1 2 17438
Cp 1 2 6.037p
Rs 1 N3 0.03
L1 N3 2 18.295u
.ends 1260_744771122_22u
*******
.subckt 1260_7447706220_22u 1 2
Rp 1 2 11306
Cp 1 2 9.325p
Rs 1 N3 0.0343
L1 N3 2 22.406u
.ends 1260_7447706220_22u
*******
.subckt 1260_744771127_27u 1 2
Rp 1 2 19869
Cp 1 2 6.308p
Rs 1 N3 0.037
L1 N3 2 23.729u
.ends 1260_744771127_27u
*******
.subckt 1260_744771133_33u 1 2
Rp 1 2 19960
Cp 1 2 6.391p
Rs 1 N3 0.049
L1 N3 2 30.263u
.ends 1260_744771133_33u
*******
.subckt 1260_7447706330_33u 1 2
Rp 1 2 14360
Cp 1 2 9.175p
Rs 1 N3 0.0508
L1 N3 2 32.823u
.ends 1260_7447706330_33u
*******
.subckt 1260_744771139_39u 1 2
Rp 1 2 23972
Cp 1 2 6.972p
Rs 1 N3 0.057
L1 N3 2 35.479u
.ends 1260_744771139_39u
*******
.subckt 1260_744771147_47u 1 2
Rp 1 2 26156
Cp 1 2 6.858p
Rs 1 N3 0.064
L1 N3 2 39.609u
.ends 1260_744771147_47u
*******
.subckt 1260_7447706470_47u 1 2
Rp 1 2 19493
Cp 1 2 10.085p
Rs 1 N3 0.0612
L1 N3 2 44.161u
.ends 1260_7447706470_47u
*******
.subckt 1260_744771156_56u 1 2
Rp 1 2 35043
Cp 1 2 6.797p
Rs 1 N3 0.077
L1 N3 2 51.171u
.ends 1260_744771156_56u
*******
.subckt 1260_744771168_68u 1 2
Rp 1 2 38057
Cp 1 2 7.521p
Rs 1 N3 0.086
L1 N3 2 60.094u
.ends 1260_744771168_68u
*******
.subckt 1260_7447706680_68u 1 2
Rp 1 2 25360
Cp 1 2 9.53p
Rs 1 N3 0.082
L1 N3 2 64.035u
.ends 1260_7447706680_68u
*******
.subckt 1260_744771182_82u 1 2
Rp 1 2 47497
Cp 1 2 7.093p
Rs 1 N3 0.112
L1 N3 2 75.648u
.ends 1260_744771182_82u
*******
.subckt 1260_74477120_100u 1 2
Rp 1 2 52186
Cp 1 2 7.386p
Rs 1 N3 0.135
L1 N3 2 90.601u
.ends 1260_74477120_100u
*******
.subckt 1260_7447706101_100u 1 2
Rp 1 2 34132
Cp 1 2 10.21p
Rs 1 N3 0.122
L1 N3 2 90.851u
.ends 1260_7447706101_100u
*******
.subckt 1260_744771212_120u 1 2
Rp 1 2 55504
Cp 1 2 6.865p
Rs 1 N3 0.15
L1 N3 2 108.278u
.ends 1260_744771212_120u
*******
.subckt 1260_744771215_150u 1 2
Rp 1 2 68654
Cp 1 2 7.441p
Rs 1 N3 0.185
L1 N3 2 135.504u
.ends 1260_744771215_150u
*******
.subckt 1260_7447706151_150u 1 2
Rp 1 2 43015
Cp 1 2 10.304p
Rs 1 N3 0.175
L1 N3 2 138.623u
.ends 1260_7447706151_150u
*******
.subckt 1260_744771218_180u 1 2
Rp 1 2 75000
Cp 1 2 7.649p
Rs 1 N3 0.23
L1 N3 2 156.586u
.ends 1260_744771218_180u
*******
.subckt 1260_744771220_220u 1 2
Rp 1 2 77433
Cp 1 2 7.283p
Rs 1 N3 0.28
L1 N3 2 202.464u
.ends 1260_744771220_220u
*******
.subckt 1260_7447706221_220u 1 2
Rp 1 2 61324
Cp 1 2 11.14p
Rs 1 N3 0.273
L1 N3 2 206.417u
.ends 1260_7447706221_220u
*******
.subckt 1260_744771270_270u 1 2
Rp 1 2 80000
Cp 1 2 7.5p
Rs 1 N3 0.33
L1 N3 2 246.708u
.ends 1260_744771270_270u
*******
.subckt 1260_744771233_330u 1 2
Rp 1 2 93949
Cp 1 2 7.976p
Rs 1 N3 0.41
L1 N3 2 300.162u
.ends 1260_744771233_330u
*******
.subckt 1260_7447706331_330u 1 2
Rp 1 2 77487
Cp 1 2 11.608p
Rs 1 N3 0.395
L1 N3 2 313.836u
.ends 1260_7447706331_330u
*******
.subckt 1260_744771239_390u 1 2
Rp 1 2 96846
Cp 1 2 8.1p
Rs 1 N3 0.54
L1 N3 2 360.487u
.ends 1260_744771239_390u
*******
.subckt 1260_74477124_470u 1 2
Rp 1 2 121785
Cp 1 2 7.901p
Rs 1 N3 0.59
L1 N3 2 431.521u
.ends 1260_74477124_470u
*******
.subckt 1260_7447706471_470u 1 2
Rp 1 2 79506
Cp 1 2 11.059p
Rs 1 N3 0.543
L1 N3 2 445.248u
.ends 1260_7447706471_470u
*******
.subckt 1260_74477125_560u 1 2
Rp 1 2 124884
Cp 1 2 7.961p
Rs 1 N3 0.74
L1 N3 2 530.155u
.ends 1260_74477125_560u
*******
.subckt 1260_74477126_680u 1 2
Rp 1 2 136460
Cp 1 2 7.095p
Rs 1 N3 0.85
L1 N3 2 632.579u
.ends 1260_74477126_680u
*******
.subckt 1260_7447706681_680u 1 2
Rp 1 2 103448
Cp 1 2 12.098p
Rs 1 N3 0.78
L1 N3 2 657.541u
.ends 1260_7447706681_680u
*******
.subckt 1260_74477128_820u 1 2
Rp 1 2 139306
Cp 1 2 7.059p
Rs 1 N3 0.98
L1 N3 2 764.395u
.ends 1260_74477128_820u
*******
.subckt 1260_74477130_1000u 1 2
Rp 1 2 176070
Cp 1 2 8.008p
Rs 1 N3 1.33
L1 N3 2 961u
.ends 1260_74477130_1000u
*******
.subckt 1260_7447706102_1000u 1 2
Rp 1 2 118912
Cp 1 2 12.776p
Rs 1 N3 1.15
L1 N3 2 943.548u
.ends 1260_7447706102_1000u
*******
.subckt 1280_74477009_0.47u 1 2
Rp 1 2 1045
Cp 1 2 4.301p
Rs 1 N3 0.0017
L1 N3 2 0.426471u
.ends 1280_74477009_0.47u
*******
.subckt 1280_74477008_0.75u 1 2
Rp 1 2 1844
Cp 1 2 2.903p
Rs 1 N3 0.0032
L1 N3 2 0.723257u
.ends 1280_74477008_0.75u
*******
.subckt 1280_74477001_1.2u 1 2
Rp 1 2 2329
Cp 1 2 13p
Rs 1 N3 0.0046
L1 N3 2 0.96686u
.ends 1280_74477001_1.2u
*******
.subckt 1280_744770015_1.5u 1 2
Rp 1 2 2509
Cp 1 2 11.5p
Rs 1 N3 0.0032
L1 N3 2 1.226u
.ends 1280_744770015_1.5u
*******
.subckt 1280_7447707015_1.5u 1 2
Rp 1 2 743
Cp 1 2 8.11p
Rs 1 N3 0.0046
L1 N3 2 1.289u
.ends 1280_7447707015_1.5u
*******
.subckt 1280_7447707022_2.2u 1 2
Rp 1 2 1218
Cp 1 2 6.996p
Rs 1 N3 0.0057
L1 N3 2 2.08u
.ends 1280_7447707022_2.2u
*******
.subckt 1280_74477002_2.4u 1 2
Rp 1 2 3879
Cp 1 2 7.08p
Rs 1 N3 0.0063
L1 N3 2 2.136u
.ends 1280_74477002_2.4u
*******
.subckt 1280_7447707033_3.3u 1 2
Rp 1 2 1847
Cp 1 2 7.991p
Rs 1 N3 0.0075
L1 N3 2 3.026u
.ends 1280_7447707033_3.3u
*******
.subckt 1280_74477003_3.5u 1 2
Rp 1 2 3620
Cp 1 2 4.974p
Rs 1 N3 0.008
L1 N3 2 3.814u
.ends 1280_74477003_3.5u
*******
.subckt 1280_74477004_4.7u 1 2
Rp 1 2 7007
Cp 1 2 5.182p
Rs 1 N3 0.009
L1 N3 2 4.982u
.ends 1280_74477004_4.7u
*******
.subckt 1280_7447707047_4.7u 1 2
Rp 1 2 2486
Cp 1 2 7.593p
Rs 1 N3 0.0085
L1 N3 2 4.012u
.ends 1280_7447707047_4.7u
*******
.subckt 1280_74477005_5.6u 1 2
Rp 1 2 5511
Cp 1 2 8p
Rs 1 N3 0.0105
L1 N3 2 5.464u
.ends 1280_74477005_5.6u
*******
.subckt 1280_74477006_6.1u 1 2
Rp 1 2 4617
Cp 1 2 6.759p
Rs 1 N3 0.011
L1 N3 2 6.063u
.ends 1280_74477006_6.1u
*******
.subckt 1280_7447707068_6.8u 1 2
Rp 1 2 4411
Cp 1 2 9.915p
Rs 1 N3 0.0118
L1 N3 2 6.979u
.ends 1280_7447707068_6.8u
*******
.subckt 1280_74477007_7.6u 1 2
Rp 1 2 5744
Cp 1 2 8.653p
Rs 1 N3 0.0115
L1 N3 2 6.848u
.ends 1280_74477007_7.6u
*******
.subckt 1280_74477010_10u 1 2
Rp 1 2 5267
Cp 1 2 8.638p
Rs 1 N3 0.015
L1 N3 2 8.785u
.ends 1280_74477010_10u
*******
.subckt 1280_7447707100_10u 1 2
Rp 1 2 6455
Cp 1 2 10.234p
Rs 1 N3 0.018
L1 N3 2 10.839u
.ends 1280_7447707100_10u
*******
.subckt 1280_744770112_12u 1 2
Rp 1 2 9991
Cp 1 2 8.834p
Rs 1 N3 0.016
L1 N3 2 11.559u
.ends 1280_744770112_12u
*******
.subckt 1280_744770115_15u 1 2
Rp 1 2 10951
Cp 1 2 10.107p
Rs 1 N3 0.018
L1 N3 2 12.42u
.ends 1280_744770115_15u
*******
.subckt 1280_7447707150_15u 1 2
Rp 1 2 8882
Cp 1 2 9.911p
Rs 1 N3 0.023
L1 N3 2 14.539u
.ends 1280_7447707150_15u
*******
.subckt 1280_744770118_18u 1 2
Rp 1 2 16340
Cp 1 2 8.407p
Rs 1 N3 0.025
L1 N3 2 17.889u
.ends 1280_744770118_18u
*******
.subckt 1280_744770122_22u 1 2
Rp 1 2 19687
Cp 1 2 8.266p
Rs 1 N3 0.029
L1 N3 2 23.064u
.ends 1280_744770122_22u
*******
.subckt 1280_7447707220_22u 1 2
Rp 1 2 12927
Cp 1 2 11.652p
Rs 1 N3 0.0315
L1 N3 2 20.747u
.ends 1280_7447707220_22u
*******
.subckt 1280_744770127_27u 1 2
Rp 1 2 16374
Cp 1 2 10.144p
Rs 1 N3 0.031
L1 N3 2 23.712u
.ends 1280_744770127_27u
*******
.subckt 1280_744770133_33u 1 2
Rp 1 2 17739
Cp 1 2 11.303p
Rs 1 N3 0.044
L1 N3 2 31.196u
.ends 1280_744770133_33u
*******
.subckt 1280_7447707330_33u 1 2
Rp 1 2 16036
Cp 1 2 11.112p
Rs 1 N3 0.0465
L1 N3 2 32.942u
.ends 1280_7447707330_33u
*******
.subckt 1280_744770139_39u 1 2
Rp 1 2 22274
Cp 1 2 11.375p
Rs 1 N3 0.047
L1 N3 2 31.879u
.ends 1280_744770139_39u
*******
.subckt 1280_744770147_47u 1 2
Rp 1 2 21959
Cp 1 2 9.148p
Rs 1 N3 0.053
L1 N3 2 44.953u
.ends 1280_744770147_47u
*******
.subckt 1280_7447707470_47u 1 2
Rp 1 2 21764
Cp 1 2 10.823p
Rs 1 N3 0.055
L1 N3 2 44.771u
.ends 1280_7447707470_47u
*******
.subckt 1280_744770156_56u 1 2
Rp 1 2 26781
Cp 1 2 9.998p
Rs 1 N3 0.059
L1 N3 2 50.957u
.ends 1280_744770156_56u
*******
.subckt 1280_744770168_68u 1 2
Rp 1 2 43066
Cp 1 2 10.899p
Rs 1 N3 0.076
L1 N3 2 61.924u
.ends 1280_744770168_68u
*******
.subckt 1280_7447707680_68u 1 2
Rp 1 2 26176
Cp 1 2 12.896p
Rs 1 N3 0.078
L1 N3 2 64.484u
.ends 1280_7447707680_68u
*******
.subckt 1280_744770182_82u 1 2
Rp 1 2 42188
Cp 1 2 24.9p
Rs 1 N3 0.086
L1 N3 2 79.63u
.ends 1280_744770182_82u
*******
.subckt 1280_74477020_100u 1 2
Rp 1 2 43243
Cp 1 2 9.795p
Rs 1 N3 0.117
L1 N3 2 93.766u
.ends 1280_74477020_100u
*******
.subckt 1280_7447707101_100u 1 2
Rp 1 2 46275
Cp 1 2 13.986p
Rs 1 N3 0.105
L1 N3 2 95.116u
.ends 1280_7447707101_100u
*******
.subckt 1280_744770215_150u 1 2
Rp 1 2 65343
Cp 1 2 19.585p
Rs 1 N3 0.145
L1 N3 2 144.009u
.ends 1280_744770215_150u
*******
.subckt 1280_7447707151_150u 1 2
Rp 1 2 52634
Cp 1 2 14.585p
Rs 1 N3 0.165
L1 N3 2 138.718u
.ends 1280_7447707151_150u
*******
.subckt 1280_744770218_180u 1 2
Rp 1 2 57579
Cp 1 2 8.108p
Rs 1 N3 0.182
L1 N3 2 179.242u
.ends 1280_744770218_180u
*******
.subckt 1280_744770222_220u 1 2
Rp 1 2 81630
Cp 1 2 8.317p
Rs 1 N3 0.23
L1 N3 2 212.529u
.ends 1280_744770222_220u
*******
.subckt 1280_7447707221_220u 1 2
Rp 1 2 61530
Cp 1 2 14.854p
Rs 1 N3 0.24
L1 N3 2 200.746u
.ends 1280_7447707221_220u
*******
.subckt 1280_744770233_330u 1 2
Rp 1 2 83993
Cp 1 2 8.56p
Rs 1 N3 0.345
L1 N3 2 327.159u
.ends 1280_744770233_330u
*******
.subckt 1280_7447707331_330u 1 2
Rp 1 2 73048
Cp 1 2 17.669p
Rs 1 N3 0.372
L1 N3 2 306.58u
.ends 1280_7447707331_330u
*******
.subckt 1280_744770247_470u 1 2
Rp 1 2 117817
Cp 1 2 8.535p
Rs 1 N3 0.45
L1 N3 2 436.648u
.ends 1280_744770247_470u
*******
.subckt 1280_7447707471_470u 1 2
Rp 1 2 87039
Cp 1 2 15.174p
Rs 1 N3 0.49
L1 N3 2 451.177u
.ends 1280_7447707471_470u
*******
.subckt 1280_744770256_560u 1 2
Rp 1 2 119841
Cp 1 2 7.43p
Rs 1 N3 0.57
L1 N3 2 546.802u
.ends 1280_744770256_560u
*******
.subckt 1280_744770268_680u 1 2
Rp 1 2 103542
Cp 1 2 7.85p
Rs 1 N3 0.78
L1 N3 2 668.961u
.ends 1280_744770268_680u
*******
.subckt 1280_7447707681_680u 1 2
Rp 1 2 96849
Cp 1 2 17.639p
Rs 1 N3 0.7
L1 N3 2 640.731u
.ends 1280_7447707681_680u
*******
.subckt 1280_744770282_820u 1 2
Rp 1 2 149541
Cp 1 2 8p
Rs 1 N3 0.87
L1 N3 2 799.794u
.ends 1280_744770282_820u
*******
.subckt 1280_74477030_1000u 1 2
Rp 1 2 145822
Cp 1 2 8.178p
Rs 1 N3 0.98
L1 N3 2 982.946u
.ends 1280_74477030_1000u
*******
.subckt 1280_7447707102_1000u 1 2
Rp 1 2 112243
Cp 1 2 17.971p
Rs 1 N3 0.985
L1 N3 2 952.938u
.ends 1280_7447707102_1000u
*******
.subckt 6033_7447785001_1u 1 2
Rp 1 2 2216.77027065
Cp 1 2 0.857843400666p
Rs 1 N3 0.031
L1 N3 2 0.967255025011u
.ends 6033_7447785001_1u
*******
.subckt 6033_7447785002_2.2u 1 2
Rp 1 2 4378.30426868
Cp 1 2 1.81548178904p
Rs 1 N3 0.043
L1 N3 2 2.15314312624u
.ends 6033_7447785002_2.2u
*******
.subckt 6033_7447785003_3.3u 1 2
Rp 1 2 5378.14539148
Cp 1 2 2.0293197902p
Rs 1 N3 0.043
L1 N3 2 2.7563697661u
.ends 6033_7447785003_3.3u
*******
.subckt 6033_7447785004_4.7u 1 2
Rp 1 2 6419.16347886
Cp 1 2 2.18658481122p
Rs 1 N3 0.06
L1 N3 2 4.16756573005u
.ends 6033_7447785004_4.7u
*******
.subckt 6033_7447785006_6.8u 1 2
Rp 1 2 8506.21069778
Cp 1 2 2.12954534656p
Rs 1 N3 0.079
L1 N3 2 6.05071959927u
.ends 6033_7447785006_6.8u
*******
.subckt 6033_744778510_10u 1 2
Rp 1 2 12213.3283534
Cp 1 2 2.46060321425p
Rs 1 N3 0.1
L1 N3 2 8.79321625609u
.ends 6033_744778510_10u
*******
.subckt 6033_7447785115_15u 1 2
Rp 1 2 13553.342485
Cp 1 2 2.64078545593p
Rs 1 N3 0.165
L1 N3 2 14.7022745416u
.ends 6033_7447785115_15u
*******
.subckt 6033_7447785122_22u 1 2
Rp 1 2 21477.817611
Cp 1 2 2.33541671451p
Rs 1 N3 0.21
L1 N3 2 19.4251211974u
.ends 6033_7447785122_22u
*******
.subckt 6033_7447785127_27u 1 2
Rp 1 2 18720
Cp 1 2 2.76p
Rs 1 N3 0.3
L1 N3 2 25.123u
.ends 6033_7447785127_27u
*******
.subckt 6033_7447785133_33u 1 2
Rp 1 2 24630
Cp 1 2 2.39p
Rs 1 N3 0.34
L1 N3 2 30.423u
.ends 6033_7447785133_33u
*******
.subckt 6033_7447785147_47u 1 2
Rp 1 2 33526.9561318
Cp 1 2 2.43213501888p
Rs 1 N3 0.5
L1 N3 2 43.1174628648u
.ends 6033_7447785147_47u
*******
.subckt 6033_744778520_100u 1 2
Rp 1 2 61685.068896
Cp 1 2 2.81516160101p
Rs 1 N3 0.95
L1 N3 2 94.2316542955u
.ends 6033_744778520_100u
*******
.subckt 6050_7447786001_1u 1 2
Rp 1 2 2037.89824727
Cp 1 2 0.663634817p
Rs 1 N3 0.028
L1 N3 2 0.947508694023u
.ends 6050_7447786001_1u
*******
.subckt 6050_7447786002_2.2u 1 2
Rp 1 2 3873.12288939
Cp 1 2 0.888176917776p
Rs 1 N3 0.04
L1 N3 2 2.10110600258u
.ends 6050_7447786002_2.2u
*******
.subckt 6050_7447786004_4.7u 1 2
Rp 1 2 6482.96246684
Cp 1 2 2.13619859583p
Rs 1 N3 0.057
L1 N3 2 4.35584118762u
.ends 6050_7447786004_4.7u
*******
.subckt 6050_7447786006_6.8u 1 2
Rp 1 2 7197.76906562
Cp 1 2 2.28699835088p
Rs 1 N3 0.062
L1 N3 2 6.4423583094u
.ends 6050_7447786006_6.8u
*******
.subckt 6050_7447786008_8.2u 1 2
Rp 1 2 9510.40662457
Cp 1 2 2.2670543677p
Rs 1 N3 0.066
L1 N3 2 7.52568588616u
.ends 6050_7447786008_8.2u
*******
.subckt 6050_744778610_10u 1 2
Rp 1 2 10586.7671579
Cp 1 2 2.53999984512p
Rs 1 N3 0.074
L1 N3 2 8.34245072542u
.ends 6050_744778610_10u
*******
.subckt 6050_7447786122_22u 1 2
Rp 1 2 17374.7513097
Cp 1 2 5.64102666619p
Rs 1 N3 0.098
L1 N3 2 19.6300919502u
.ends 6050_7447786122_22u
*******
.subckt 6050_7447786147_47u 1 2
Rp 1 2 35068.1701337
Cp 1 2 5.79515468172p
Rs 1 N3 0.26
L1 N3 2 42.9111231439u
.ends 6050_7447786147_47u
*******
.subckt 7332_744778005_0.54u 1 2
Rp 1 2 1229.74139719
Cp 1 2 2.81710018376p
Rs 1 N3 0.0072
L1 N3 2 0.405637106674u
.ends 7332_744778005_0.54u
*******
.subckt 7332_744778001_1u 1 2
Rp 1 2 2166.12668275
Cp 1 2 2.47067045874p
Rs 1 N3 0.009
L1 N3 2 0.773397441523u
.ends 7332_744778001_1u
*******
.subckt 7332_7447789001_1u 1 2
Rp 1 2 2164.87869848
Cp 1 2 2.61396727902p
Rs 1 N3 0.01
L1 N3 2 0.772776226124u
.ends 7332_7447789001_1u
*******
.subckt 7332_7447783015_1.5u 1 2
Rp 1 2 1060
Cp 1 2 3.397p
Rs 1 N3 0.012
L1 N3 2 1.41u
.ends 7332_7447783015_1.5u
*******
.subckt 7332_744778002_2.2u 1 2
Rp 1 2 4984.65903378
Cp 1 2 2.66299907004p
Rs 1 N3 0.014
L1 N3 2 2.09435585344u
.ends 7332_744778002_2.2u
*******
.subckt 7332_7447789002_2.2u 1 2
Rp 1 2 5113.0951551
Cp 1 2 2.75488097451p
Rs 1 N3 0.019
L1 N3 2 2.0669826351u
.ends 7332_7447789002_2.2u
*******
.subckt 7332_7447783022_2.2u 1 2
Rp 1 2 1644
Cp 1 2 3.131p
Rs 1 N3 0.0155
L1 N3 2 2.11u
.ends 7332_7447783022_2.2u
*******
.subckt 7332_744778003_3.3u 1 2
Rp 1 2 6426.52613323
Cp 1 2 2.99661324441p
Rs 1 N3 0.024
L1 N3 2 2.56462716755u
.ends 7332_744778003_3.3u
*******
.subckt 7332_7447789003_3.3u 1 2
Rp 1 2 6967.01278729
Cp 1 2 2.34363124437p
Rs 1 N3 0.024
L1 N3 2 2.81530333037u
.ends 7332_7447789003_3.3u
*******
.subckt 7332_7447783033_3.3u 1 2
Rp 1 2 2339
Cp 1 2 3.477p
Rs 1 N3 0.018
L1 N3 2 2.88u
.ends 7332_7447783033_3.3u
*******
.subckt 7332_744778004_4.7u 1 2
Rp 1 2 8887.11646987
Cp 1 2 3.26091741837p
Rs 1 N3 0.042
L1 N3 2 4.06187686187u
.ends 7332_744778004_4.7u
*******
.subckt 7332_7447789004_4.7u 1 2
Rp 1 2 9174.29236527
Cp 1 2 3.00846976512p
Rs 1 N3 0.033
L1 N3 2 3.86514286773u
.ends 7332_7447789004_4.7u
*******
.subckt 7332_7447783047_4.7u 1 2
Rp 1 2 4208
Cp 1 2 3.56p
Rs 1 N3 0.027
L1 N3 2 4.08u
.ends 7332_7447783047_4.7u
*******
.subckt 7332_7447789006_6.8u 1 2
Rp 1 2 11163.6489624
Cp 1 2 3.1698604005p
Rs 1 N3 0.0415
L1 N3 2 5.82987393511u
.ends 7332_7447789006_6.8u
*******
.subckt 7332_7447783068_6.8u 1 2
Rp 1 2 5309
Cp 1 2 3.232p
Rs 1 N3 0.033
L1 N3 2 6.39u
.ends 7332_7447783068_6.8u
*******
.subckt 7332_74477810_10u 1 2
Rp 1 2 14371.7275969
Cp 1 2 3.06494111157p
Rs 1 N3 0.068
L1 N3 2 7.79780559887u
.ends 7332_74477810_10u
*******
.subckt 7332_744778910_10u 1 2
Rp 1 2 16852.2449006
Cp 1 2 2.7268024532p
Rs 1 N3 0.064
L1 N3 2 8.0668901277u
.ends 7332_744778910_10u
*******
.subckt 7332_7447783100_10u 1 2
Rp 1 2 8092
Cp 1 2 2.937p
Rs 1 N3 0.056
L1 N3 2 9.541u
.ends 7332_7447783100_10u
*******
.subckt 7332_744778112_12u 1 2
Rp 1 2 16520.2293361
Cp 1 2 3.43671378309p
Rs 1 N3 0.076
L1 N3 2 9.86176498616u
.ends 7332_744778112_12u
*******
.subckt 7332_7447789112_12u 1 2
Rp 1 2 19926.4041255
Cp 1 2 3.19462974993p
Rs 1 N3 0.076
L1 N3 2 10.341959258u
.ends 7332_7447789112_12u
*******
.subckt 7332_744778115_15u 1 2
Rp 1 2 22047.7802689
Cp 1 2 2.94868309515p
Rs 1 N3 0.1
L1 N3 2 13.1759854422u
.ends 7332_744778115_15u
*******
.subckt 7332_7447789115_15u 1 2
Rp 1 2 26979.0113761
Cp 1 2 2.95751468157p
Rs 1 N3 0.1
L1 N3 2 12.6691187155u
.ends 7332_7447789115_15u
*******
.subckt 7332_7447783150_15u 1 2
Rp 1 2 12813
Cp 1 2 3.463p
Rs 1 N3 0.068
L1 N3 2 13.88u
.ends 7332_7447783150_15u
*******