**************************************************
* Manufacturer:          Würth Elektronik
* Kinds:                 MLCCs Capacitors
* Matchcode:             WCAP-CSGP
* Library Type:          LTspice
* Version:               rev22c
* Created/modified by:   Ella
* Date and Time:         10/13/2022
* Team:                  eiSos EDA Service  
* Contact:               libraries@we-online.com
**************************************************
* Copyright(C) 2022 Würth Elektronik eiSos GmbH & Co. KG	
* All Rights Reserved.	
**************************************************	
* Disclaimer: While Würth Elektronik eiSos has made every reasonable effort to ensure the accuracy	
* of the simulation models provided, Würth Elektronik eiSos does not guarantee the exemption of error on	
* the simulation models, nor does Würth Elektronik eiSos guarantee that the simulation model is current.	
* Würth Elektronik eiSos reserves the right to make any adjustments at any time without notice.	
* Würth Elektronik eiSos expressly disclaims all implied warranties regarding this simulation model.	
**************************************************	
.subckt 0402_885012105004_470nF 1 2
Rser 1 3 0.0135620044546
Lser 2 4 2.89834924E-10
C1 3 4 0.00000047
Rpar 3 4 200000000
.ends 0402_885012105004_470nF
*******
.subckt 0402_885012105005_680nF 1 2
Rser 1 3 0.00866869355558
Lser 2 4 3.2312296E-10
C1 3 4 0.00000068
Rpar 3 4 200000000
.ends 0402_885012105005_680nF
*******
.subckt 0402_885012105006_1uF 1 2
Rser 1 3 0.0122136788791
Lser 2 4 3.38680925E-10
C1 3 4 0.000001
Rpar 3 4 50000000
.ends 0402_885012105006_1uF
*******
.subckt 0402_885012105007_2.2uF 1 2
Rser 1 3 0.00909909650012
Lser 2 4 3.49876612E-10
C1 3 4 0.0000022
Rpar 3 4 20000000
.ends 0402_885012105007_2.2uF
*******
.subckt 0402_885012105008_4.7uF 1 2
Rser 1 3 0.00453732146966
Lser 2 4 3.78498478E-10
C1 3 4 0.0000047
Rpar 3 4 10000000
.ends 0402_885012105008_4.7uF
*******
.subckt 0402_885012105020_10uF 1 2
Rser 1 3 0.0058
Lser 2 4 0.0000000008
C1 3 4 0.00001
Rpar 3 4 5000000
.ends 0402_885012105020_10uF
*******
.subckt 0603_885012106001_470nF 1 2
Rser 1 3 0.00946787785536
Lser 2 4 2.50326617E-10
C1 3 4 0.00000047
Rpar 3 4 200000000
.ends 0603_885012106001_470nF
*******
.subckt 0603_885012106002_680nF 1 2
Rser 1 3 0.0104592893966
Lser 2 4 3.4734058E-10
C1 3 4 0.00000068
Rpar 3 4 200000000
.ends 0603_885012106002_680nF
*******
.subckt 0603_885012106003_1uF 1 2
Rser 1 3 0.00760558670624
Lser 2 4 3.54495768E-10
C1 3 4 0.000001
Rpar 3 4 100000000
.ends 0603_885012106003_1uF
*******
.subckt 0603_885012106004_2.2uF 1 2
Rser 1 3 0.00652337052819
Lser 2 4 4.58001637E-10
C1 3 4 0.0000022
Rpar 3 4 50000000
.ends 0603_885012106004_2.2uF
*******
.subckt 0603_885012106005_4.7uF 1 2
Rser 1 3 0.00436564105168
Lser 2 4 5.20484374E-10
C1 3 4 0.0000047
Rpar 3 4 10000000
.ends 0603_885012106005_4.7uF
*******
.subckt 0603_885012106006_10uF 1 2
Rser 1 3 0.00407641026021
Lser 2 4 4.16060333E-10
C1 3 4 0.00001
Rpar 3 4 5000000
.ends 0603_885012106006_10uF
*******
.subckt 0805_885012107001_2.2uF 1 2
Rser 1 3 0.00487002224398
Lser 2 4 2.50543345E-10
C1 3 4 0.0000022
Rpar 3 4 50000000
.ends 0805_885012107001_2.2uF
*******
.subckt 0805_885012107002_3.3uF 1 2
Rser 1 3 0.00453837206006
Lser 2 4 2.98091685E-10
C1 3 4 0.0000033
Rpar 3 4 30000000
.ends 0805_885012107002_3.3uF
*******
.subckt 0805_885012107003_4.7uF 1 2
Rser 1 3 0.00422571742874
Lser 2 4 2.56201535E-10
C1 3 4 0.0000047
Rpar 3 4 20000000
.ends 0805_885012107003_4.7uF
*******
.subckt 0805_885012107004_10uF 1 2
Rser 1 3 0.00320609856405
Lser 2 4 3.83098838E-10
C1 3 4 0.00001
Rpar 3 4 10000000
.ends 0805_885012107004_10uF
*******
.subckt 0805_885012107005_22uF 1 2
Rser 1 3 0.00282261758127
Lser 2 4 5.44199046E-10
C1 3 4 0.000022
Rpar 3 4 2000000
.ends 0805_885012107005_22uF
*******
.subckt 0805_885012107006_47uF 1 2
Rser 1 3 0.00246814753418
Lser 2 4 4.62831333E-10
C1 3 4 0.000047
Rpar 3 4 1000000
.ends 0805_885012107006_47uF
*******
.subckt 1206_885012108001_4.7uF 1 2
Rser 1 3 0.00600320174513
Lser 2 4 5.14564007E-10
C1 3 4 0.0000047
Rpar 3 4 20000000
.ends 1206_885012108001_4.7uF
*******
.subckt 1206_885012108002_10uF 1 2
Rser 1 3 0.00340980665018
Lser 2 4 8.40328091E-10
C1 3 4 0.00001
Rpar 3 4 5000000
.ends 1206_885012108002_10uF
*******
.subckt 1206_885012108003_22uF 1 2
Rser 1 3 0.003095358264
Lser 2 4 8.67209117E-10
C1 3 4 0.000022
Rpar 3 4 2000000
.ends 1206_885012108003_22uF
*******
.subckt 1206_885012108004_47uF 1 2
Rser 1 3 0.00304958303174
Lser 2 4 8.27626832E-10
C1 3 4 0.000047
Rpar 3 4 1000000
.ends 1206_885012108004_47uF
*******
.subckt 1206_885012108005_100uF 1 2
Rser 1 3 0.00189819698397
Lser 2 4 0.0000000009
C1 3 4 0.0001
Rpar 3 4 1000000
.ends 1206_885012108005_100uF
*******
.subckt 1210_885012109001_10uF 1 2
Rser 1 3 0.00236975905543
Lser 2 4 7.97405226E-10
C1 3 4 0.00001
Rpar 3 4 10000000
.ends 1210_885012109001_10uF
*******
.subckt 1210_885012109002_22uF 1 2
Rser 1 3 0.00298875292394
Lser 2 4 0.0000000009
C1 3 4 0.000022
Rpar 3 4 2000000
.ends 1210_885012109002_22uF
*******
.subckt 1210_885012109003_47uF 1 2
Rser 1 3 0.00230591969867
Lser 2 4 9.5617691E-10
C1 3 4 0.000047
Rpar 3 4 1000000
.ends 1210_885012109003_47uF
*******
.subckt 1210_885012109004_100uF 1 2
Rser 1 3 0.00239801642091
Lser 2 4 0.0000000009
C1 3 4 0.0001
Rpar 3 4 1000000
.ends 1210_885012109004_100uF
*******
.subckt 0603_885012206001_470nF 1 2
Rser 1 3 0.00945
Lser 2 4 0.00000000041822
C1 3 4 0.00000047
Rpar 3 4 200000000
.ends 0603_885012206001_470nF
*******
.subckt 0603_885012206002_1uF 1 2
Rser 1 3 0.00781
Lser 2 4 0.00000000043943
C1 3 4 0.000001
Rpar 3 4 100000000
.ends 0603_885012206002_1uF
*******
.subckt 0805_885012207001_2.2uF 1 2
Rser 1 3 0.00442275214815
Lser 2 4 2.37717125E-10
C1 3 4 0.0000022
Rpar 3 4 50000000
.ends 0805_885012207001_2.2uF
*******
.subckt 0805_885012207002_4.7uF 1 2
Rser 1 3 0.00447387150505
Lser 2 4 2.50863578E-10
C1 3 4 0.0000047
Rpar 3 4 10000000
.ends 0805_885012207002_4.7uF
*******
.subckt 0805_885012207003_10uF 1 2
Rser 1 3 0.00336648172245
Lser 2 4 4.89291579E-10
C1 3 4 0.00001
Rpar 3 4 5000000
.ends 0805_885012207003_10uF
*******
.subckt 1206_885012208001_2.2uF 1 2
Rser 1 3 0.00708971442636
Lser 2 4 4.50708422E-10
C1 3 4 0.0000022
Rpar 3 4 50000000
.ends 1206_885012208001_2.2uF
*******
.subckt 1206_885012208002_4.7uF 1 2
Rser 1 3 0.00380516684832
Lser 2 4 4.86025433E-10
C1 3 4 0.0000047
Rpar 3 4 20000000
.ends 1206_885012208002_4.7uF
*******
.subckt 1206_885012208003_10uF 1 2
Rser 1 3 0.00257769589302
Lser 2 4 7.50158848E-10
C1 3 4 0.00001
Rpar 3 4 5000000
.ends 1206_885012208003_10uF
*******
.subckt 0201_885012104003_100nF 1 2
Rser 1 3 0.02829
Lser 2 4 0.00000000018
C1 3 4 0.0000001
Rpar 3 4 500000000
.ends 0201_885012104003_100nF
*******
.subckt 0201_885012104004_10nF 1 2
Rser 1 3 0.0627
Lser 2 4 0.000000000218
C1 3 4 0.00000001
Rpar 3 4 10000000000
.ends 0201_885012104004_10nF
*******
.subckt 0201_885012104009_100nF 1 2
Rser 1 3 0.0337
Lser 2 4 0.00000000018
C1 3 4 0.0000001
Rpar 3 4 500000000
.ends 0201_885012104009_100nF
*******
.subckt 0201_885012104010_220nF 1 2
Rser 1 3 0.043
Lser 2 4 0.00000000021
C1 3 4 0.00000022
Rpar 3 4 200000000
.ends 0201_885012104010_220nF
*******
.subckt 0201_885012104011_1uF 1 2
Rser 1 3 0.0109
Lser 2 4 0.00000000023
C1 3 4 0.000001
Rpar 3 4 50000000
.ends 0201_885012104011_1uF
*******
.subckt 0402_885012005049_1pF 1 2
Rser 1 3 0.372412566115
Lser 2 4 3.42487064E-10
C1 3 4 0.000000000001
Rpar 3 4 10000000000
.ends 0402_885012005049_1pF
*******
.subckt 0402_885012005050_1.5pF 1 2
Rser 1 3 0.262794296584
Lser 2 4 3.57764917E-10
C1 3 4 0.0000000000015
Rpar 3 4 10000000000
.ends 0402_885012005050_1.5pF
*******
.subckt 0402_885012005051_2.2pF 1 2
Rser 1 3 0.373107051593
Lser 2 4 3.52926651E-10
C1 3 4 0.0000000000022
Rpar 3 4 10000000000
.ends 0402_885012005051_2.2pF
*******
.subckt 0402_885012005052_3.3pF 1 2
Rser 1 3 0.371592714575
Lser 2 4 3.85528579E-10
C1 3 4 0.0000000000033
Rpar 3 4 10000000000
.ends 0402_885012005052_3.3pF
*******
.subckt 0402_885012005053_4.7pF 1 2
Rser 1 3 0.443688812845
Lser 2 4 4.55408482E-10
C1 3 4 0.0000000000047
Rpar 3 4 10000000000
.ends 0402_885012005053_4.7pF
*******
.subckt 0402_885012005054_6.8pF 1 2
Rser 1 3 0.397780736645
Lser 2 4 4.18761945E-10
C1 3 4 0.0000000000068
Rpar 3 4 10000000000
.ends 0402_885012005054_6.8pF
*******
.subckt 0402_885012005055_10pF 1 2
Rser 1 3 0.367986500147
Lser 2 4 4.54592782E-10
C1 3 4 0.00000000001
Rpar 3 4 10000000000
.ends 0402_885012005055_10pF
*******
.subckt 0402_885012005056_15pF 1 2
Rser 1 3 0.289002377009
Lser 2 4 4.35524241E-10
C1 3 4 0.000000000015
Rpar 3 4 10000000000
.ends 0402_885012005056_15pF
*******
.subckt 0402_885012005057_22pF 1 2
Rser 1 3 0.1946461244
Lser 2 4 4.43759844E-10
C1 3 4 0.000000000022
Rpar 3 4 10000000000
.ends 0402_885012005057_22pF
*******
.subckt 0402_885012005058_33pF 1 2
Rser 1 3 0.125165063018
Lser 2 4 4.11479308E-10
C1 3 4 0.000000000033
Rpar 3 4 10000000000
.ends 0402_885012005058_33pF
*******
.subckt 0402_885012005059_47pF 1 2
Rser 1 3 0.136483462277
Lser 2 4 4.44322285E-10
C1 3 4 0.000000000047
Rpar 3 4 10000000000
.ends 0402_885012005059_47pF
*******
.subckt 0402_885012005060_68pF 1 2
Rser 1 3 0.101411214779
Lser 2 4 4.24748886E-10
C1 3 4 0.000000000068
Rpar 3 4 10000000000
.ends 0402_885012005060_68pF
*******
.subckt 0402_885012005061_100pF 1 2
Rser 1 3 0.0708016190464
Lser 2 4 3.72654022E-10
C1 3 4 0.0000000001
Rpar 3 4 10000000000
.ends 0402_885012005061_100pF
*******
.subckt 0402_885012005062_150pF 1 2
Rser 1 3 0.043551770519
Lser 2 4 3.72165147E-10
C1 3 4 0.00000000015
Rpar 3 4 10000000000
.ends 0402_885012005062_150pF
*******
.subckt 0402_885012005063_220pF 1 2
Rser 1 3 0.0328677075671
Lser 2 4 3.55619232E-10
C1 3 4 0.00000000022
Rpar 3 4 10000000000
.ends 0402_885012005063_220pF
*******
.subckt 0402_885012005067_1nF 1 2
Rser 1 3 0.065
Lser 2 4 0.000000001
C1 3 4 0.000000001
Rpar 3 4 10000000000
.ends 0402_885012005067_1nF
*******
.subckt 0603_885012006048_3.3pF 1 2
Rser 1 3 0.351777802818
Lser 2 4 4.93521689E-10
C1 3 4 0.0000000000033
Rpar 3 4 10000000000
.ends 0603_885012006048_3.3pF
*******
.subckt 0603_885012006049_4.7pF 1 2
Rser 1 3 0.314951809581
Lser 2 4 4.34213899E-10
C1 3 4 0.0000000000047
Rpar 3 4 10000000000
.ends 0603_885012006049_4.7pF
*******
.subckt 0603_885012006050_6.8pF 1 2
Rser 1 3 0.53
Lser 2 4 0.00000000049
C1 3 4 0.0000000000068
Rpar 3 4 10000000000
.ends 0603_885012006050_6.8pF
*******
.subckt 0603_885012006051_10pF 1 2
Rser 1 3 0.423568844547
Lser 2 4 6.08699424E-10
C1 3 4 0.00000000001
Rpar 3 4 10000000000
.ends 0603_885012006051_10pF
*******
.subckt 0603_885012006052_15pF 1 2
Rser 1 3 0.396040749585
Lser 2 4 6.08298711E-10
C1 3 4 0.000000000015
Rpar 3 4 10000000000
.ends 0603_885012006052_15pF
*******
.subckt 0603_885012006053_22pF 1 2
Rser 1 3 0.388744823765
Lser 2 4 6.9588017E-10
C1 3 4 0.000000000022
Rpar 3 4 10000000000
.ends 0603_885012006053_22pF
*******
.subckt 0603_885012006054_33pF 1 2
Rser 1 3 0.321193198235
Lser 2 4 7.31689517E-10
C1 3 4 0.000000000033
Rpar 3 4 10000000000
.ends 0603_885012006054_33pF
*******
.subckt 0603_885012006055_47pF 1 2
Rser 1 3 0.290935011258
Lser 2 4 4.02698987E-10
C1 3 4 0.000000000047
Rpar 3 4 10000000000
.ends 0603_885012006055_47pF
*******
.subckt 0603_885012006056_68pF 1 2
Rser 1 3 0.190199312239
Lser 2 4 6.75111985E-10
C1 3 4 0.000000000068
Rpar 3 4 10000000000
.ends 0603_885012006056_68pF
*******
.subckt 0603_885012006057_100pF 1 2
Rser 1 3 0.155626039874
Lser 2 4 4.37579661E-10
C1 3 4 0.0000000001
Rpar 3 4 10000000000
.ends 0603_885012006057_100pF
*******
.subckt 0603_885012006058_150pF 1 2
Rser 1 3 0.117171082106
Lser 2 4 5.86950362E-10
C1 3 4 0.00000000015
Rpar 3 4 10000000000
.ends 0603_885012006058_150pF
*******
.subckt 0603_885012006059_220pF 1 2
Rser 1 3 0.120673949599
Lser 2 4 6.11171216E-10
C1 3 4 0.00000000022
Rpar 3 4 10000000000
.ends 0603_885012006059_220pF
*******
.subckt 0603_885012006060_330pF 1 2
Rser 1 3 0.0984499950001
Lser 2 4 5.75039775E-10
C1 3 4 0.00000000033
Rpar 3 4 10000000000
.ends 0603_885012006060_330pF
*******
.subckt 0603_885012006061_470pF 1 2
Rser 1 3 0.0701665420081
Lser 2 4 5.55279727E-10
C1 3 4 0.00000000047
Rpar 3 4 10000000000
.ends 0603_885012006061_470pF
*******
.subckt 0603_885012006062_680pF 1 2
Rser 1 3 0.058780576404
Lser 2 4 5.07120306E-10
C1 3 4 0.00000000068
Rpar 3 4 10000000000
.ends 0603_885012006062_680pF
*******
.subckt 0603_885012006063_1nF 1 2
Rser 1 3 0.040317449025
Lser 2 4 4.45418718E-10
C1 3 4 0.000000001
Rpar 3 4 10000000000
.ends 0603_885012006063_1nF
*******
.subckt 0805_885012007046_1.5pF 1 2
Rser 1 3 0.498754904967
Lser 2 4 4.46307458E-10
C1 3 4 0.0000000000015
Rpar 3 4 10000000000
.ends 0805_885012007046_1.5pF
*******
.subckt 0805_885012007047_2.2pF 1 2
Rser 1 3 0.464027184378
Lser 2 4 4.17958974E-10
C1 3 4 0.0000000000022
Rpar 3 4 10000000000
.ends 0805_885012007047_2.2pF
*******
.subckt 0805_885012007048_3.3pF 1 2
Rser 1 3 0.476983731701
Lser 2 4 4.57833988E-10
C1 3 4 0.0000000000033
Rpar 3 4 10000000000
.ends 0805_885012007048_3.3pF
*******
.subckt 0805_885012007049_4.7pF 1 2
Rser 1 3 0.497100489266
Lser 2 4 4.97943432E-10
C1 3 4 0.0000000000047
Rpar 3 4 10000000000
.ends 0805_885012007049_4.7pF
*******
.subckt 0805_885012007050_6.8pF 1 2
Rser 1 3 0.437292047874
Lser 2 4 5.43803179E-10
C1 3 4 0.0000000000068
Rpar 3 4 10000000000
.ends 0805_885012007050_6.8pF
*******
.subckt 0805_885012007051_10pF 1 2
Rser 1 3 0.5317
Lser 2 4 0.00000000045
C1 3 4 0.00000000001
Rpar 3 4 10000000000
.ends 0805_885012007051_10pF
*******
.subckt 0805_885012007052_15pF 1 2
Rser 1 3 0.351715326777
Lser 2 4 5.44262413E-10
C1 3 4 0.000000000015
Rpar 3 4 10000000000
.ends 0805_885012007052_15pF
*******
.subckt 0805_885012007053_22pF 1 2
Rser 1 3 0.320807516938
Lser 2 4 5.98353392E-10
C1 3 4 0.000000000022
Rpar 3 4 10000000000
.ends 0805_885012007053_22pF
*******
.subckt 0805_885012007054_33pF 1 2
Rser 1 3 0.251170142371
Lser 2 4 5.67157711E-10
C1 3 4 0.000000000033
Rpar 3 4 10000000000
.ends 0805_885012007054_33pF
*******
.subckt 0805_885012007055_47pF 1 2
Rser 1 3 0.216515950035
Lser 2 4 5.20835554E-10
C1 3 4 0.000000000047
Rpar 3 4 10000000000
.ends 0805_885012007055_47pF
*******
.subckt 0805_885012007056_68pF 1 2
Rser 1 3 0.173987704202
Lser 2 4 4.36318354E-10
C1 3 4 0.000000000068
Rpar 3 4 10000000000
.ends 0805_885012007056_68pF
*******
.subckt 0805_885012007057_100pF 1 2
Rser 1 3 0.112239658687
Lser 2 4 3.23857063E-10
C1 3 4 0.0000000001
Rpar 3 4 10000000000
.ends 0805_885012007057_100pF
*******
.subckt 0805_885012007058_150pF 1 2
Rser 1 3 0.125944924272
Lser 2 4 4.46129224E-10
C1 3 4 0.00000000015
Rpar 3 4 10000000000
.ends 0805_885012007058_150pF
*******
.subckt 0805_885012007059_220pF 1 2
Rser 1 3 0.079249932999
Lser 2 4 3.92377309E-10
C1 3 4 0.00000000022
Rpar 3 4 10000000000
.ends 0805_885012007059_220pF
*******
.subckt 0805_885012007060_330pF 1 2
Rser 1 3 0.0873115639161
Lser 2 4 4.48869509E-10
C1 3 4 0.00000000033
Rpar 3 4 10000000000
.ends 0805_885012007060_330pF
*******
.subckt 0805_885012007061_470pF 1 2
Rser 1 3 0.0447460793708
Lser 2 4 5.13925095E-10
C1 3 4 0.00000000047
Rpar 3 4 10000000000
.ends 0805_885012007061_470pF
*******
.subckt 0805_885012007062_680pF 1 2
Rser 1 3 0.0641329981739
Lser 2 4 4.25300517E-10
C1 3 4 0.00000000068
Rpar 3 4 10000000000
.ends 0805_885012007062_680pF
*******
.subckt 0805_885012007063_1nF 1 2
Rser 1 3 0.0594421507531
Lser 2 4 4.12205624E-10
C1 3 4 0.000000001
Rpar 3 4 10000000000
.ends 0805_885012007063_1nF
*******
.subckt 0805_885012007064_1.5nF 1 2
Rser 1 3 0.0542761813318
Lser 2 4 4.44523189E-10
C1 3 4 0.0000000015
Rpar 3 4 10000000000
.ends 0805_885012007064_1.5nF
*******
.subckt 0805_885012007065_2.2nF 1 2
Rser 1 3 0.0452125293188
Lser 2 4 3.18286842E-10
C1 3 4 0.0000000022
Rpar 3 4 10000000000
.ends 0805_885012007065_2.2nF
*******
.subckt 0805_885012007066_3.3nF 1 2
Rser 1 3 0.0386718470366
Lser 2 4 4.52637868E-10
C1 3 4 0.0000000033
Rpar 3 4 10000000000
.ends 0805_885012007066_3.3nF
*******
.subckt 0805_885012007067_4.7nF 1 2
Rser 1 3 0.0321239026517
Lser 2 4 3.90170133E-10
C1 3 4 0.0000000047
Rpar 3 4 10000000000
.ends 0805_885012007067_4.7nF
*******
.subckt 1206_885012008037_10pF 1 2
Rser 1 3 0.247786722229
Lser 2 4 5.75498755E-10
C1 3 4 0.00000000001
Rpar 3 4 10000000000
.ends 1206_885012008037_10pF
*******
.subckt 1206_885012008038_15pF 1 2
Rser 1 3 0.203981995296
Lser 2 4 5.79093876E-10
C1 3 4 0.000000000015
Rpar 3 4 10000000000
.ends 1206_885012008038_15pF
*******
.subckt 1206_885012008039_22pF 1 2
Rser 1 3 0.160102464353
Lser 2 4 5.19970978E-10
C1 3 4 0.000000000022
Rpar 3 4 10000000000
.ends 1206_885012008039_22pF
*******
.subckt 1206_885012008040_33pF 1 2
Rser 1 3 0.211299340525
Lser 2 4 5.80360065E-10
C1 3 4 0.000000000033
Rpar 3 4 10000000000
.ends 1206_885012008040_33pF
*******
.subckt 1206_885012008041_47pF 1 2
Rser 1 3 0.208069659743
Lser 2 4 5.31192815E-10
C1 3 4 0.000000000047
Rpar 3 4 10000000000
.ends 1206_885012008041_47pF
*******
.subckt 1206_885012008042_68pF 1 2
Rser 1 3 0.207112222887
Lser 2 4 5.32291452E-10
C1 3 4 0.000000000068
Rpar 3 4 10000000000
.ends 1206_885012008042_68pF
*******
.subckt 1206_885012008043_100pF 1 2
Rser 1 3 0.120593750684
Lser 2 4 4.75662979E-10
C1 3 4 0.0000000001
Rpar 3 4 10000000000
.ends 1206_885012008043_100pF
*******
.subckt 1206_885012008044_150pF 1 2
Rser 1 3 0.116934479556
Lser 2 4 4.79036564E-10
C1 3 4 0.00000000015
Rpar 3 4 10000000000
.ends 1206_885012008044_150pF
*******
.subckt 1206_885012008045_220pF 1 2
Rser 1 3 0.10386657318
Lser 2 4 4.26569823E-10
C1 3 4 0.00000000022
Rpar 3 4 10000000000
.ends 1206_885012008045_220pF
*******
.subckt 1206_885012008046_330pF 1 2
Rser 1 3 0.0889473100116
Lser 2 4 3.86799658E-10
C1 3 4 0.00000000033
Rpar 3 4 10000000000
.ends 1206_885012008046_330pF
*******
.subckt 1206_885012008047_470pF 1 2
Rser 1 3 0.112293156509
Lser 2 4 4.49592146E-10
C1 3 4 0.00000000047
Rpar 3 4 10000000000
.ends 1206_885012008047_470pF
*******
.subckt 1206_885012008048_680pF 1 2
Rser 1 3 0.0885483556492
Lser 2 4 4.83404689E-10
C1 3 4 0.00000000068
Rpar 3 4 10000000000
.ends 1206_885012008048_680pF
*******
.subckt 1206_885012008049_1nF 1 2
Rser 1 3 0.0678258865879
Lser 2 4 4.38251746E-10
C1 3 4 0.000000001
Rpar 3 4 10000000000
.ends 1206_885012008049_1nF
*******
.subckt 1206_885012008050_1.5nF 1 2
Rser 1 3 0.0522994987595
Lser 2 4 3.90875574E-10
C1 3 4 0.0000000015
Rpar 3 4 10000000000
.ends 1206_885012008050_1.5nF
*******
.subckt 1206_885012008051_2.2nF 1 2
Rser 1 3 0.0481287677862
Lser 2 4 4.23334149E-10
C1 3 4 0.0000000022
Rpar 3 4 10000000000
.ends 1206_885012008051_2.2nF
*******
.subckt 1206_885012008052_3.3nF 1 2
Rser 1 3 0.048551433153
Lser 2 4 3.89367659E-10
C1 3 4 0.0000000033
Rpar 3 4 10000000000
.ends 1206_885012008052_3.3nF
*******
.subckt 1206_885012008053_4.7nF 1 2
Rser 1 3 0.0373751695173
Lser 2 4 3.96656883E-10
C1 3 4 0.0000000047
Rpar 3 4 10000000000
.ends 1206_885012008053_4.7nF
*******
.subckt 1206_885012008054_6.8nF 1 2
Rser 1 3 0.0328755784645
Lser 2 4 4.18880071E-10
C1 3 4 0.0000000068
Rpar 3 4 10000000000
.ends 1206_885012008054_6.8nF
*******
.subckt 1206_885012008055_10nF 1 2
Rser 1 3 0.0308699044735
Lser 2 4 4.5821325E-10
C1 3 4 0.00000001
Rpar 3 4 10000000000
.ends 1206_885012008055_10nF
*******
.subckt 1210_885012009007_22pF 1 2
Rser 1 3 0.374121714519
Lser 2 4 2.35270135E-10
C1 3 4 0.000000000022
Rpar 3 4 10000000000
.ends 1210_885012009007_22pF
*******
.subckt 1210_885012009008_33pF 1 2
Rser 1 3 0.242364797292
Lser 2 4 2.04183536E-10
C1 3 4 0.000000000033
Rpar 3 4 10000000000
.ends 1210_885012009008_33pF
*******
.subckt 1210_885012009009_47pF 1 2
Rser 1 3 0.210290362797
Lser 2 4 2.1842961E-10
C1 3 4 0.000000000047
Rpar 3 4 10000000000
.ends 1210_885012009009_47pF
*******
.subckt 1210_885012009010_68pF 1 2
Rser 1 3 0.147762447298
Lser 2 4 1.90656729E-10
C1 3 4 0.000000000068
Rpar 3 4 10000000000
.ends 1210_885012009010_68pF
*******
.subckt 1210_885012009011_100pF 1 2
Rser 1 3 0.129347366442
Lser 2 4 2.02608781E-10
C1 3 4 0.0000000001
Rpar 3 4 10000000000
.ends 1210_885012009011_100pF
*******
.subckt 1210_885012009012_150pF 1 2
Rser 1 3 0.130052835884
Lser 2 4 2.16784494E-10
C1 3 4 0.00000000015
Rpar 3 4 10000000000
.ends 1210_885012009012_150pF
*******
.subckt 1210_885012009013_220pF 1 2
Rser 1 3 0.0421105658392
Lser 2 4 2.03486371E-10
C1 3 4 0.00000000022
Rpar 3 4 10000000000
.ends 1210_885012009013_220pF
*******
.subckt 1210_885012009014_330pF 1 2
Rser 1 3 0.0366680474844
Lser 2 4 2.12935248E-10
C1 3 4 0.00000000033
Rpar 3 4 10000000000
.ends 1210_885012009014_330pF
*******
.subckt 1210_885012009015_470pF 1 2
Rser 1 3 0.041753756573
Lser 2 4 3.51053092E-10
C1 3 4 0.00000000047
Rpar 3 4 10000000000
.ends 1210_885012009015_470pF
*******
.subckt 1210_885012009016_680pF 1 2
Rser 1 3 0.0310627645209
Lser 2 4 2.06977272E-10
C1 3 4 0.00000000068
Rpar 3 4 10000000000
.ends 1210_885012009016_680pF
*******
.subckt 1210_885012009017_1nF 1 2
Rser 1 3 0.0212060307253
Lser 2 4 2.0371621E-10
C1 3 4 0.000000001
Rpar 3 4 10000000000
.ends 1210_885012009017_1nF
*******
.subckt 1210_885012009018_1.5nF 1 2
Rser 1 3 0.0312392079081
Lser 2 4 2.87207915E-10
C1 3 4 0.0000000015
Rpar 3 4 10000000000
.ends 1210_885012009018_1.5nF
*******
.subckt 1210_885012009019_2.2nF 1 2
Rser 1 3 0.0215418747712
Lser 2 4 2.06777607E-10
C1 3 4 0.0000000022
Rpar 3 4 10000000000
.ends 1210_885012009019_2.2nF
*******
.subckt 1210_885012009020_3.3nF 1 2
Rser 1 3 0.0267047192368
Lser 2 4 2.05676794E-10
C1 3 4 0.0000000033
Rpar 3 4 10000000000
.ends 1210_885012009020_3.3nF
*******
.subckt 1210_885012009021_4.7nF 1 2
Rser 1 3 0.0311921178887
Lser 2 4 2.6092549E-10
C1 3 4 0.0000000047
Rpar 3 4 10000000000
.ends 1210_885012009021_4.7nF
*******
.subckt 1210_885012009022_6.8nF 1 2
Rser 1 3 0.0328474651911
Lser 2 4 1.68986675E-10
C1 3 4 0.0000000068
Rpar 3 4 10000000000
.ends 1210_885012009022_6.8nF
*******
.subckt 1210_885012009023_10nF 1 2
Rser 1 3 0.0123831418384
Lser 2 4 1.88456734E-10
C1 3 4 0.00000001
Rpar 3 4 10000000000
.ends 1210_885012009023_10nF
*******
.subckt 1210_885012009024_15nF 1 2
Rser 1 3 0.0151582048451
Lser 2 4 2.71190675E-10
C1 3 4 0.000000015
Rpar 3 4 10000000000
.ends 1210_885012009024_15nF
*******
.subckt 1812_885012010005_100pF 1 2
Rser 1 3 0.12355169432
Lser 2 4 3.51203653E-10
C1 3 4 0.0000000001
Rpar 3 4 10000000000
.ends 1812_885012010005_100pF
*******
.subckt 1812_885012010006_220pF 1 2
Rser 1 3 0.0878558292315
Lser 2 4 3.98601571E-10
C1 3 4 0.00000000022
Rpar 3 4 10000000000
.ends 1812_885012010006_220pF
*******
.subckt 1812_885012010007_470pF 1 2
Rser 1 3 0.0486179980779
Lser 2 4 3.42708418E-10
C1 3 4 0.00000000047
Rpar 3 4 10000000000
.ends 1812_885012010007_470pF
*******
.subckt 1812_885012010008_1nF 1 2
Rser 1 3 0.054974361057
Lser 2 4 3.20553197E-10
C1 3 4 0.000000001
Rpar 3 4 10000000000
.ends 1812_885012010008_1nF
*******
.subckt 1812_885012010009_1.5nF 1 2
Rser 1 3 0.0235411944876
Lser 2 4 3.17035352E-10
C1 3 4 0.0000000015
Rpar 3 4 10000000000
.ends 1812_885012010009_1.5nF
*******
.subckt 1812_885012010010_3.3nF 1 2
Rser 1 3 0.0199944630408
Lser 2 4 3.02916593E-10
C1 3 4 0.0000000033
Rpar 3 4 10000000000
.ends 1812_885012010010_3.3nF
*******
.subckt 1812_885012010011_4.7nF 1 2
Rser 1 3 0.0944854934425
Lser 2 4 4.17148603E-10
C1 3 4 0.0000000047
Rpar 3 4 10000000000
.ends 1812_885012010011_4.7nF
*******
.subckt 1812_885012010012_6.8nF 1 2
Rser 1 3 0.0862794087323
Lser 2 4 2.93234437E-10
C1 3 4 0.0000000068
Rpar 3 4 10000000000
.ends 1812_885012010012_6.8nF
*******
.subckt 1812_885012010013_10nF 1 2
Rser 1 3 0.0378661246646
Lser 2 4 3.63058436E-10
C1 3 4 0.00000001
Rpar 3 4 10000000000
.ends 1812_885012010013_10nF
*******
.subckt 1812_885012010014_15nF 1 2
Rser 1 3 0.0258373805332
Lser 2 4 2.604228E-10
C1 3 4 0.000000015
Rpar 3 4 10000000000
.ends 1812_885012010014_15nF
*******
.subckt 1812_885012010015_22nF 1 2
Rser 1 3 0.0255141881395
Lser 2 4 3.80015608E-10
C1 3 4 0.000000022
Rpar 3 4 10000000000
.ends 1812_885012010015_22nF
*******
.subckt 1812_885012010016_33nF 1 2
Rser 1 3 0.0536968994705
Lser 2 4 3.37435968E-10
C1 3 4 0.000000033
Rpar 3 4 10000000000
.ends 1812_885012010016_33nF
*******
.subckt 1206_885012108022_10uF 1 2
Rser 1 3 0.00342327531378
Lser 2 4 0.000000000799
C1 3 4 0.00001
Rpar 3 4 5000000
.ends 1206_885012108022_10uF
*******
.subckt 0402_885012205055_100pF 1 2
Rser 1 3 0.81826
Lser 2 4 0.00000000027428
C1 3 4 0.0000000001
Rpar 3 4 10000000000
.ends 0402_885012205055_100pF
*******
.subckt 0402_885012205056_150pF 1 2
Rser 1 3 0.632711426036
Lser 2 4 1.20280732E-10
C1 3 4 0.00000000015
Rpar 3 4 10000000000
.ends 0402_885012205056_150pF
*******
.subckt 0402_885012205057_220pF 1 2
Rser 1 3 0.578964014005
Lser 2 4 1.69232145E-10
C1 3 4 0.00000000022
Rpar 3 4 10000000000
.ends 0402_885012205057_220pF
*******
.subckt 0402_885012205058_330pF 1 2
Rser 1 3 0.503553103715
Lser 2 4 1.67673778E-10
C1 3 4 0.00000000033
Rpar 3 4 10000000000
.ends 0402_885012205058_330pF
*******
.subckt 0402_885012205059_470pF 1 2
Rser 1 3 0.341891187733
Lser 2 4 1.53352894E-10
C1 3 4 0.00000000047
Rpar 3 4 10000000000
.ends 0402_885012205059_470pF
*******
.subckt 0402_885012205060_680pF 1 2
Rser 1 3 0.291776877274
Lser 2 4 1.90727531E-10
C1 3 4 0.00000000068
Rpar 3 4 10000000000
.ends 0402_885012205060_680pF
*******
.subckt 0402_885012205061_1nF 1 2
Rser 1 3 0.16682
Lser 2 4 0.00000000027542
C1 3 4 0.000000001
Rpar 3 4 10000000000
.ends 0402_885012205061_1nF
*******
.subckt 0402_885012205062_1.5nF 1 2
Rser 1 3 0.318149132739
Lser 2 4 2.00030416E-10
C1 3 4 0.0000000015
Rpar 3 4 10000000000
.ends 0402_885012205062_1.5nF
*******
.subckt 0402_885012205063_2.2nF 1 2
Rser 1 3 0.167940534432
Lser 2 4 1.9652905E-10
C1 3 4 0.0000000022
Rpar 3 4 10000000000
.ends 0402_885012205063_2.2nF
*******
.subckt 0402_885012205064_3.3nF 1 2
Rser 1 3 0.128032535119
Lser 2 4 2.21229721E-10
C1 3 4 0.0000000033
Rpar 3 4 10000000000
.ends 0402_885012205064_3.3nF
*******
.subckt 0402_885012205065_4.7nF 1 2
Rser 1 3 0.12665496656
Lser 2 4 2.40553052E-10
C1 3 4 0.0000000047
Rpar 3 4 10000000000
.ends 0402_885012205065_4.7nF
*******
.subckt 0402_885012205066_6.8nF 1 2
Rser 1 3 0.103789689499
Lser 2 4 1.90645336E-10
C1 3 4 0.0000000068
Rpar 3 4 10000000000
.ends 0402_885012205066_6.8nF
*******
.subckt 0402_885012205067_10nF 1 2
Rser 1 3 0.110942181295
Lser 2 4 1.63617133E-10
C1 3 4 0.00000001
Rpar 3 4 10000000000
.ends 0402_885012205067_10nF
*******
.subckt 0402_885012205086_100nF 1 2
Rser 1 3 0.07
Lser 2 4 0.00000000055
C1 3 4 0.0000001
Rpar 3 4 1000000000
.ends 0402_885012205086_100nF
*******
.subckt 0402_885012205092_100nF 1 2
Rser 1 3 0.033
Lser 2 4 0.0000000006
C1 3 4 0.0000001
Rpar 3 4 500000000
.ends 0402_885012205092_100nF
*******
.subckt 0603_885012206077_100pF 1 2
Rser 1 3 0.85996
Lser 2 4 0.00000000023099
C1 3 4 0.0000000001
Rpar 3 4 10000000000
.ends 0603_885012206077_100pF
*******
.subckt 0603_885012206078_150pF 1 2
Rser 1 3 0.6711
Lser 2 4 0.00000000028059
C1 3 4 0.00000000015
Rpar 3 4 10000000000
.ends 0603_885012206078_150pF
*******
.subckt 0603_885012206079_220pF 1 2
Rser 1 3 0.58208
Lser 2 4 0.00000000030164
C1 3 4 0.00000000022
Rpar 3 4 10000000000
.ends 0603_885012206079_220pF
*******
.subckt 0603_885012206080_330pF 1 2
Rser 1 3 0.43473
Lser 2 4 0.00000000032084
C1 3 4 0.00000000033
Rpar 3 4 10000000000
.ends 0603_885012206080_330pF
*******
.subckt 0603_885012206081_470pF 1 2
Rser 1 3 0.34619
Lser 2 4 0.00000000032738
C1 3 4 0.00000000047
Rpar 3 4 10000000000
.ends 0603_885012206081_470pF
*******
.subckt 0603_885012206082_680pF 1 2
Rser 1 3 0.303992916785
Lser 2 4 3.80425244E-10
C1 3 4 0.00000000068
Rpar 3 4 10000000000
.ends 0603_885012206082_680pF
*******
.subckt 0603_885012206083_1nF 1 2
Rser 1 3 0.25783718447
Lser 2 4 4.104475E-10
C1 3 4 0.000000001
Rpar 3 4 10000000000
.ends 0603_885012206083_1nF
*******
.subckt 0603_885012206083R_1nF 1 2
Rser 1 3 0.25783718447
Lser 2 4 4.104475E-10
C1 3 4 0.000000001
Rpar 3 4 10000000000
.ends 0603_885012206083R_1nF
*******
.subckt 0603_885012206084_1.5nF 1 2
Rser 1 3 0.180999474852
Lser 2 4 3.54773595E-10
C1 3 4 0.0000000015
Rpar 3 4 10000000000
.ends 0603_885012206084_1.5nF
*******
.subckt 0603_885012206085_2.2nF 1 2
Rser 1 3 0.139424404216
Lser 2 4 3.27512531E-10
C1 3 4 0.0000000022
Rpar 3 4 10000000000
.ends 0603_885012206085_2.2nF
*******
.subckt 0603_885012206086_3.3nF 1 2
Rser 1 3 0.105745225203
Lser 2 4 3.39462116E-10
C1 3 4 0.0000000033
Rpar 3 4 10000000000
.ends 0603_885012206086_3.3nF
*******
.subckt 0603_885012206087_4.7nF 1 2
Rser 1 3 0.0821607581427
Lser 2 4 2.83989011E-10
C1 3 4 0.0000000047
Rpar 3 4 10000000000
.ends 0603_885012206087_4.7nF
*******
.subckt 0603_885012206088_6.8nF 1 2
Rser 1 3 0.0838686105847
Lser 2 4 4.16447222E-10
C1 3 4 0.0000000068
Rpar 3 4 10000000000
.ends 0603_885012206088_6.8nF
*******
.subckt 0603_885012206089_10nF 1 2
Rser 1 3 0.0358532866879
Lser 2 4 3.4059544E-10
C1 3 4 0.00000001
Rpar 3 4 10000000000
.ends 0603_885012206089_10nF
*******
.subckt 0603_885012206089R_10nF 1 2
Rser 1 3 0.0358532866879
Lser 2 4 3.4059544E-10
C1 3 4 0.00000001
Rpar 3 4 10000000000
.ends 0603_885012206089R_10nF
*******
.subckt 0603_885012206090_15nF 1 2
Rser 1 3 0.0485012368007
Lser 2 4 3.32575255E-10
C1 3 4 0.000000015
Rpar 3 4 10000000000
.ends 0603_885012206090_15nF
*******
.subckt 0603_885012206091_22nF 1 2
Rser 1 3 0.00971971773084
Lser 2 4 3.00225265E-10
C1 3 4 0.000000022
Rpar 3 4 10000000000
.ends 0603_885012206091_22nF
*******
.subckt 0603_885012206092_33nF 1 2
Rser 1 3 0.02322
Lser 2 4 0.00000000030071
C1 3 4 0.000000033
Rpar 3 4 10000000000
.ends 0603_885012206092_33nF
*******
.subckt 0603_885012206093_47nF 1 2
Rser 1 3 0.02723
Lser 2 4 0.00000000027891
C1 3 4 0.000000047
Rpar 3 4 10000000000
.ends 0603_885012206093_47nF
*******
.subckt 0603_885012206094_68nF 1 2
Rser 1 3 0.01852
Lser 2 4 0.00000000023609
C1 3 4 0.000000068
Rpar 3 4 7400000000
.ends 0603_885012206094_68nF
*******
.subckt 0603_885012206095_100nF 1 2
Rser 1 3 0.0157659152881
Lser 2 4 3.10171966E-10
C1 3 4 0.0000001
Rpar 3 4 5000000000