**************************************************
* Manufacturer:          Wurth Elektronik 
* Kinds:                 SMT Wire Wound Ceramic Inductor
* Matchcode:             WE-KI
* Library Type:          LTspice
* Version:               rev21a
* Created/modified by:   Ella
* Date and Time:         5/24/2022
* Team:                  eiSos EDA Service  
* Contact:               libraries@we-online.com
**************************************************
* Copyright(C) 2022 Wurth Elektronik eiSos GmbH & Co. KG
* All Rights Reserved.
**************************************************
* Disclaimer: While Wurth Elektronik eiSos has made every reasonable effort to ensure the accuracy
* of the simulation models provided, Wurth Elektronik eiSos does not guarantee the exemption of error on
* the simulation models, nor does Wurth Elektronik eiSos guarantee that the simulation model is current.
* Wurth Elektronik eiSos reserves the right to make any adjustments at any time without notice.
* Wurth Elektronik eiSos expressly disclaims all implied warranties regarding this simulation model.
**************************************************
.subckt 0402_744765010A_1n 1 2
C1 1 N7 389.9518f
L1 1 N1 1n
L2 N1 N2 96.3426p
L3 N2 N3 139.4502p
L4 N3 N4 103.4194p
L5 N4 N5 63.1189p
L6 N5 N6 49.9792p
R1 2 N1 342.6049m
R2 2 N2 120.7838m
R3 2 N3 121.8758m
R4 2 N4 104.9031m
R5 2 N5 85.9424m
R6 2 N6 69.4743m
R7 2 N7 1.963
R8 2 1 1000000
.ends 0402_744765010A_1n
*******
.subckt 0402_744765019A_1.9n 1 2
C1 1 N7 268.5623f
L1 1 N1 1.7n
L2 N1 N2 205.5140p
L3 N2 N3 360.8888p
L4 N3 N4 330.0807p
L5 N4 N5 76.3595p
L6 N5 N6 54.0235p
R1 2 N1 365.6141m
R2 2 N2 363.8721m
R3 2 N3 329.5292m
R4 2 N4 271.9021m
R5 2 N5 245.0317m
R6 2 N6 90.3834m
R7 2 N7 1.9367
R8 2 1 1000000
.ends 0402_744765019A_1.9n
*******
.subckt 0402_744765020A_2n 1 2
C1 1 N7 0.3909p
L1 1 N1 1.8n
L2 N1 N2 113.5986p
L3 N2 N3 164.9783p
L4 N3 N4 127.9698p
L5 N4 N5 76.0574p
L6 N5 N6 53.8163p
R1 2 N1 408.3139m
R2 2 N2 156.8311m
R3 2 N3 143.0775m
R4 2 N4 122.8693m
R5 2 N5 103.3572m
R6 2 N6 89.5015m
R7 2 N7 1.9392
R8 2 1 1000000
.ends 0402_744765020A_2n
*******
.subckt 0402_744765022A_2.2n 1 2
C1 1 N7 0.35181p
L1 1 N1 2n
L2 N1 N2 134.6801p
L3 N2 N3 191.5544p
L4 N3 N4 209.2749p
L5 N4 N5 117.7200p
L6 N5 N6 65.4777p
R1 2 N1 423.9170m
R2 2 N2 244.3270m
R3 2 N3 218.5825m
R4 2 N4 184.8275m
R5 2 N5 161.4858m
R6 2 N6 152.4895m
R7 2 N7 1.9339
R8 2 1 1000000
.ends 0402_744765022A_2.2n
*******
.subckt 0402_744765024A_2.4n 1 2
C1 1 N7 295.2228f
L1 1 N1 2.2n
L2 N1 N2 134.4912p
L3 N2 N3 191.5524p
L4 N3 N4 209.5138p
L5 N4 N5 117.8466p
L6 N5 N6 65.5144p
R1 2 N1 538.3200m
R2 2 N2 217.2103m
R3 2 N3 218.7924m
R4 2 N4 185.0361m
R5 2 N5 161.6736m
R6 2 N6 152.6719m
R7 2 N7 1.9354
R8 2 1 1000000
.ends 0402_744765024A_2.4n
*******
.subckt 0402_744765027A_2.7n 1 2
C1 1 N7 212.4513f
L1 1 N1 2.5n
L2 N1 N2 145.0852p
L3 N2 N3 191.5524p
L4 N3 N4 212.7290p
L5 N4 N5 120.2424p
L6 N5 N6 66.1591p
R1 2 N1 724.8729m
R2 2 N2 356.5225m
R3 2 N3 222.8469m
R4 2 N4 188.9472m
R5 2 N5 165.1597m
R6 2 N6 156.0427m
R7 2 N7 1.931
R8 2 1 1000000
.ends 0402_744765027A_2.7n
*******
.subckt 0402_744765033A_3.3n 1 2
C1 1 N7 221.3170f
L1 1 N1 3.1n
L2 N1 N2 159.8447p
L3 N2 N3 191.5524p
L4 N3 N4 212.7290p
L5 N4 N5 132.5429p
L6 N5 N6 69.5011p
R1 2 N1 561.2163m
R2 2 N2 668.7847m
R3 2 N3 247.4353m
R4 2 N4 206.5131m
R5 2 N5 179.0585m
R6 2 N6 168.9615m
R7 2 N7 1.9286
R8 2 1 1000000
.ends 0402_744765033A_3.3n
*******
.subckt 0402_744765036A_3.6n 1 2
C1 1 N7 139.8032f
L1 1 N1 3.4n
L2 N1 N2 148.6566p
L3 N2 N3 191.8588p
L4 N3 N4 212.7290p
L5 N4 N5 137.7992p
L6 N5 N6 70.8751p
R1 2 N1 727.2652m
R2 2 N2 370.5498m
R3 2 N3 253.9939m
R4 2 N4 213.9650m
R5 2 N5 185.1919m
R6 2 N6 174.7227m
R7 2 N7 1.9207
R8 2 1 1000000
.ends 0402_744765036A_3.6n
*******
.subckt 0402_744765039A_3.9n 1 2
C1 1 N7 166.4000f
L1 1 N1 3.7n
L2 N1 N2 147.1866p
L3 N2 N3 191.8588p
L4 N3 N4 212.7290p
L5 N4 N5 139.6005p
L6 N5 N6 71.3408p
R1 2 N1 668.4030m
R2 2 N2 399.5452m
R3 2 N3 256.9274m
R4 2 N4 216.3665m
R5 2 N5 187.0541m
R6 2 N6 176.4355m
R7 2 N7 1.9211
R8 2 1 1000000
.ends 0402_744765039A_3.9n
*******
.subckt 0402_744765043A_4.3n 1 2
C1 1 N7 234.8940f
L1 1 N1 4n
L2 N1 N2 183.2147p
L3 N2 N3 191.8588p
L4 N3 N4 212.7290p
L5 N4 N5 254.3259p
L6 N5 N6 100.8976p
R1 2 N1 759.9111m
R2 2 N2 942.7394m
R3 2 N3 435.0905m
R4 2 N4 363.8248m
R5 2 N5 298.4430m
R6 2 N6 278.5925m
R7 2 N7 1.8927
R8 2 1 1000000
.ends 0402_744765043A_4.3n
*******
.subckt 0402_744765047A_4.7n 1 2
C1 1 N7 202.4121f
L1 1 N1 4.4n
L2 N1 N2 135.8640p
L3 N2 N3 131.1227p
L4 N3 N4 82.6537p
L5 N4 N5 47.1729p
L6 N5 N6 369.1065p
R1 2 N1 1.0836
R2 2 N2 1.2101
R3 2 N3 929.8133m
R4 2 N4 734.5717m
R5 2 N5 602.3623m
R6 2 N6 369.4921m
R7 2 N7 1.9766
R8 2 1 1000000
.ends 0402_744765047A_4.7n
*******
.subckt 0402_744765051A_5.1n 1 2
C1 1 N7 152.0253f
L1 1 N1 4.85n
L2 N1 N2 126.1185p
L3 N2 N3 129.1151p
L4 N3 N4 83.9388p
L5 N4 N5 48.3829p
L6 N5 N6 410.0049p
R1 2 N1 928.4837m
R2 2 N2 1.1544
R3 2 N3 936.8238m
R4 2 N4 762.4379m
R5 2 N5 638.6151m
R6 2 N6 365.9469m
R7 2 N7 1.9755
R8 2 1 1000000
.ends 0402_744765051A_5.1n
*******
.subckt 0402_744765051GA_5.1n 1 2
C1 1 N7 152.0253f
L1 1 N1 4.85n
L2 N1 N2 126.1185p
L3 N2 N3 129.1151p
L4 N3 N4 83.9388p
L5 N4 N5 48.3829p
L6 N5 N6 410.0049p
R1 2 N1 928.4837m
R2 2 N2 1.1544
R3 2 N3 936.8238m
R4 2 N4 762.4379m
R5 2 N5 638.6151m
R6 2 N6 365.9469m
R7 2 N7 1.9755
R8 2 1 1000000
.ends 0402_744765051GA_5.1n
*******
.subckt 0402_744765056A_5.6n 1 2
C1 1 N7 98.6102f
L1 1 N1 5.35n
L2 N1 N2 136.5935p
L3 N2 N3 134.3901p
L4 N3 N4 86.3994p
L5 N4 N5 49.4908p
L6 N5 N6 436.6862p
R1 2 N1 1.0593
R2 2 N2 1.2191
R3 2 N3 968.4352m
R4 2 N4 786.7350m
R5 2 N5 664.1795m
R6 2 N6 358.3856m
R7 2 N7 1.9734
R8 2 1 1000000
.ends 0402_744765056A_5.6n
*******
.subckt 0402_744765056GA_5.6n 1 2
C1 1 N7 98.6102f
L1 1 N1 5.35n
L2 N1 N2 136.5935p
L3 N2 N3 134.3901p
L4 N3 N4 86.3994p
L5 N4 N5 49.4908p
L6 N5 N6 436.6862p
R1 2 N1 1.0593
R2 2 N2 1.2191
R3 2 N3 968.4352m
R4 2 N4 786.7350m
R5 2 N5 664.1795m
R6 2 N6 358.3856m
R7 2 N7 1.9734
R8 2 1 1000000
.ends 0402_744765056GA_5.6n
*******
.subckt 0402_744765062A_6.2n 1 2
C1 1 N7 45.7108f
L1 1 N1 5.95n
L2 N1 N2 152.7755p
L3 N2 N3 145.7468p
L4 N3 N4 93.1160p
L5 N4 N5 52.7038p
L6 N5 N6 515.0878p
R1 2 N1 1.1816
R2 2 N2 1.3244
R3 2 N3 1.0501
R4 2 N4 860.9239m
R5 2 N5 743.2689m
R6 2 N6 348.3450m
R7 2 N7 1.9722
R8 2 1 1000000
.ends 0402_744765062A_6.2n
*******
.subckt 0402_744765062GA_6.2n 1 2
C1 1 N7 45.7108f
L1 1 N1 5.95n
L2 N1 N2 152.7755p
L3 N2 N3 145.7468p
L4 N3 N4 93.1160p
L5 N4 N5 52.7038p
L6 N5 N6 515.0878p
R1 2 N1 1.1816
R2 2 N2 1.3244
R3 2 N3 1.0501
R4 2 N4 860.9239m
R5 2 N5 743.2689m
R6 2 N6 348.3450m
R7 2 N7 1.9722
R8 2 1 1000000
.ends 0402_744765062GA_6.2n
*******
.subckt 0402_744765068A_6.8n 1 2
C1 1 N7 83.0836f
L1 1 N1 6.5n
L2 N1 N2 182.6013p
L3 N2 N3 191.0980p
L4 N3 N4 134.1514p
L5 N4 N5 72.1778p
L6 N5 N6 992.8975p
R1 2 N1 1.3834
R2 2 N2 1.7882
R3 2 N3 1.591
R4 2 N4 1.3965
R5 2 N5 1.3028
R6 2 N6 593.1976m
R7 2 N7 1.9678
R8 2 1 1000000
.ends 0402_744765068A_6.8n
*******
.subckt 0402_744765068GA_6.8n 1 2
C1 1 N7 83.0836f
L1 1 N1 6.5n
L2 N1 N2 182.6013p
L3 N2 N3 191.0980p
L4 N3 N4 134.1514p
L5 N4 N5 72.1778p
L6 N5 N6 992.8975p
R1 2 N1 1.3834
R2 2 N2 1.7882
R3 2 N3 1.591
R4 2 N4 1.3965
R5 2 N5 1.3028
R6 2 N6 593.1976m
R7 2 N7 1.9678
R8 2 1 1000000
.ends 0402_744765068GA_6.8n
*******
.subckt 0402_744765075A_7.5n 1 2
C1 1 N7 63.2462f
L1 1 N1 7.2n
L2 N1 N2 182.4916p
L3 N2 N3 191.0922p
L4 N3 N4 134.1543p
L5 N4 N5 72.1788p
L6 N5 N6 992.8935p
R1 2 N1 1.3798
R2 2 N2 1.7878
R3 2 N3 1.591
R4 2 N4 1.3965
R5 2 N5 1.3028
R6 2 N6 592.9804m
R7 2 N7 1.9677
R8 2 1 1000000
.ends 0402_744765075A_7.5n
*******
.subckt 0402_744765075GA_7.5n 1 2
C1 1 N7 63.2462f
L1 1 N1 7.2n
L2 N1 N2 182.4916p
L3 N2 N3 191.0922p
L4 N3 N4 134.1543p
L5 N4 N5 72.1788p
L6 N5 N6 992.8935p
R1 2 N1 1.3798
R2 2 N2 1.7878
R3 2 N3 1.591
R4 2 N4 1.3965
R5 2 N5 1.3028
R6 2 N6 592.9804m
R7 2 N7 1.9677
R8 2 1 1000000
.ends 0402_744765075GA_7.5n
*******
.subckt 0402_744765082A_8.2n 1 2
C1 1 N7 78.4949f
L1 1 N1 7.8n
L2 N1 N2 182.4916p
L3 N2 N3 191.0922p
L4 N3 N4 135.1153p
L5 N4 N5 72.4800p
L6 N5 N6 992.8935p
R1 2 N1 1.5865
R2 2 N2 1.8494
R3 2 N3 1.6039
R4 2 N4 1.4003
R5 2 N5 1.3046
R6 2 N6 570.0508m
R7 2 N7 1.9656
R8 2 1 1000000
.ends 0402_744765082A_8.2n
*******
.subckt 0402_744765082GA_8.2n 1 2
C1 1 N7 78.4949f
L1 1 N1 7.8n
L2 N1 N2 182.4916p
L3 N2 N3 191.0922p
L4 N3 N4 135.1153p
L5 N4 N5 72.4800p
L6 N5 N6 992.8935p
R1 2 N1 1.5865
R2 2 N2 1.8494
R3 2 N3 1.6039
R4 2 N4 1.4003
R5 2 N5 1.3046
R6 2 N6 570.0508m
R7 2 N7 1.9656
R8 2 1 1000000
.ends 0402_744765082GA_8.2n
*******
.subckt 0402_744765087A_8.7n 1 2
C1 1 N7 22.0581f
L1 1 N1 8.3n
L2 N1 N2 155.0829p
L3 N2 N3 183.5830p
L4 N3 N4 207.6467p
L5 N4 N5 101.7920p
L6 N5 N6 992.8935p
R1 2 N1 3.3489
R2 2 N2 2.9363
R3 2 N3 2.4492
R4 2 N4 2.0775
R5 2 N5 1.9055
R6 2 N6 644.9946m
R7 2 N7 1.9366
R8 2 1 1000000
.ends 0402_744765087A_8.7n
*******
.subckt 0402_744765090A_9n 1 2
C1 1 N7 49.9561f
L1 1 N1 8.55n
L2 N1 N2 94.0460p
L3 N2 N3 158.0317p
L4 N3 N4 203.1479p
L5 N4 N5 100.8256p
L6 N5 N6 976.1723p
R1 2 N1 3.1128
R2 2 N2 2.6843
R3 2 N3 2.3587
R4 2 N4 2.0602
R5 2 N5 1.894
R6 2 N6 619.8332m
R7 2 N7 1.9341
R8 2 1 1000000
.ends 0402_744765090A_9n
*******
.subckt 0402_744765090GA_9n 1 2
C1 1 N7 49.9561f
L1 1 N1 8.55n
L2 N1 N2 94.0460p
L3 N2 N3 158.0317p
L4 N3 N4 203.1479p
L5 N4 N5 100.8256p
L6 N5 N6 976.1723p
R1 2 N1 3.1128
R2 2 N2 2.6843
R3 2 N3 2.3587
R4 2 N4 2.0602
R5 2 N5 1.894
R6 2 N6 619.8332m
R7 2 N7 1.9341
R8 2 1 1000000
.ends 0402_744765090GA_9n
*******
.subckt 0402_744765095A_9.5n 1 2
C1 1 N7 22.0867f
L1 1 N1 9n
L2 N1 N2 140.7895p
L3 N2 N3 192.8702p
L4 N3 N4 213.0035p
L5 N4 N5 165.7744p
L6 N5 N6 1.0059n
R1 2 N1 2.9812
R2 2 N2 3.6414
R3 2 N3 3.7736
R4 2 N4 3.2115
R5 2 N5 2.8792
R6 2 N6 1.1524
R7 2 N7 1.9144
R8 2 1 1000000
.ends 0402_744765095A_9.5n
*******
.subckt 0402_744765095GA_9.5n 1 2
C1 1 N7 22.0867f
L1 1 N1 9n
L2 N1 N2 140.7895p
L3 N2 N3 192.8702p
L4 N3 N4 213.0035p
L5 N4 N5 165.7744p
L6 N5 N6 1.0059n
R1 2 N1 2.9812
R2 2 N2 3.6414
R3 2 N3 3.7736
R4 2 N4 3.2115
R5 2 N5 2.8792
R6 2 N6 1.1524
R7 2 N7 1.9144
R8 2 1 1000000
.ends 0402_744765095GA_9.5n
*******
.subckt 0402_744765110A_10n 1 2
C1 1 N7 21.8477f
L1 1 N1 9.5n
L2 N1 N2 93.1599p
L3 N2 N3 111.5855p
L4 N3 N4 164.2473p
L5 N4 N5 175.9956p
L6 N5 N6 315.8247p
R1 2 N1 3.0555
R2 2 N2 4.1558
R3 2 N3 4.0385
R4 2 N4 3.3362
R5 2 N5 2.8717
R6 2 N6 1.0146
R7 2 N7 4.69
R8 2 1 1000000
.ends 0402_744765110A_10n
*******
.subckt 0402_744765110GA_10n 1 2
C1 1 N7 21.8477f
L1 1 N1 9.5n
L2 N1 N2 93.1599p
L3 N2 N3 111.5855p
L4 N3 N4 164.2473p
L5 N4 N5 175.9956p
L6 N5 N6 315.8247p
R1 2 N1 3.0555
R2 2 N2 4.1558
R3 2 N3 4.0385
R4 2 N4 3.3362
R5 2 N5 2.8717
R6 2 N6 1.0146
R7 2 N7 4.69
R8 2 1 1000000
.ends 0402_744765110GA_10n
*******
.subckt 0402_744765111A_11n 1 2
C1 1 N7 103.8026f
L1 1 N1 10.5n
L2 N1 N2 107.8041p
L3 N2 N3 139.0629p
L4 N3 N4 187.4208p
L5 N4 N5 187.7668p
L6 N5 N6 562.0267p
R1 2 N1 2.5853
R2 2 N2 3.8634
R3 2 N3 3.787
R4 2 N4 3.0854
R5 2 N5 2.6663
R6 2 N6 679.0439m
R7 2 N7 3.6956
R8 2 1 1000000
.ends 0402_744765111A_11n
*******
.subckt 0402_744765111GA_11n 1 2
C1 1 N7 103.8026f
L1 1 N1 10.5n
L2 N1 N2 107.8041p
L3 N2 N3 139.0629p
L4 N3 N4 187.4208p
L5 N4 N5 187.7668p
L6 N5 N6 562.0267p
R1 2 N1 2.5853
R2 2 N2 3.8634
R3 2 N3 3.787
R4 2 N4 3.0854
R5 2 N5 2.6663
R6 2 N6 679.0439m
R7 2 N7 3.6956
R8 2 1 1000000
.ends 0402_744765111GA_11n
*******
.subckt 0402_744765112A_12n 1 2
C1 1 N7 96.6372f
L1 1 N1 11.4n
L2 N1 N2 143.4175p
L3 N2 N3 164.4827p
L4 N3 N4 198.3812p
L5 N4 N5 190.1172p
L6 N5 N6 566.2931p
R1 2 N1 2.8587
R2 2 N2 3.9879
R3 2 N3 3.8628
R4 2 N4 3.1168
R5 2 N5 2.6705
R6 2 N6 620.5290m
R7 2 N7 3.6931
R8 2 1 1000000
.ends 0402_744765112A_12n
*******
.subckt 0402_744765112GA_12n 1 2
C1 1 N7 96.6372f
L1 1 N1 11.4n
L2 N1 N2 143.4175p
L3 N2 N3 164.4827p
L4 N3 N4 198.3812p
L5 N4 N5 190.1172p
L6 N5 N6 566.2931p
R1 2 N1 2.8587
R2 2 N2 3.9879
R3 2 N3 3.8628
R4 2 N4 3.1168
R5 2 N5 2.6705
R6 2 N6 620.5290m
R7 2 N7 3.6931
R8 2 1 1000000
.ends 0402_744765112GA_12n
*******
.subckt 0402_744765113A_13n 1 2
C1 1 N7 100.7608f
L1 1 N1 12.4n
L2 N1 N2 178.9608p
L3 N2 N3 191.2043p
L4 N3 N4 212.1927p
L5 N4 N5 195.4094p
L6 N5 N6 746.9179p
R1 2 N1 3.1102
R2 2 N2 4.1255
R3 2 N3 3.9536
R4 2 N4 3.1755
R5 2 N5 2.7066
R6 2 N6 715.2736m
R7 2 N7 3.6906
R8 2 1 1000000
.ends 0402_744765113A_13n
*******
.subckt 0402_744765113GA_13n 1 2
C1 1 N7 100.7608f
L1 1 N1 12.4n
L2 N1 N2 178.9608p
L3 N2 N3 191.2043p
L4 N3 N4 212.1927p
L5 N4 N5 195.4094p
L6 N5 N6 746.9179p
R1 2 N1 3.1102
R2 2 N2 4.1255
R3 2 N3 3.9536
R4 2 N4 3.1755
R5 2 N5 2.7066
R6 2 N6 715.2736m
R7 2 N7 3.6906
R8 2 1 1000000
.ends 0402_744765113GA_13n
*******
.subckt 0402_744765115A_15n 1 2
C1 1 N7 78.1968f
L1 1 N1 14.3n
L2 N1 N2 184.4580p
L3 N2 N3 191.2043p
L4 N3 N4 212.1927p
L5 N4 N5 206.5524p
L6 N5 N6 986.2845p
R1 2 N1 3.7539
R2 2 N2 4.5237
R3 2 N3 4.1991
R4 2 N4 3.3195
R5 2 N5 2.7862
R6 2 N6 695.4261m
R7 2 N7 3.6817
R8 2 1 1000000
.ends 0402_744765115A_15n
*******
.subckt 0402_744765115GA_15n 1 2
C1 1 N7 78.1968f
L1 1 N1 14.3n
L2 N1 N2 184.4580p
L3 N2 N3 191.2043p
L4 N3 N4 212.1927p
L5 N4 N5 206.5524p
L6 N5 N6 986.2845p
R1 2 N1 3.7539
R2 2 N2 4.5237
R3 2 N3 4.1991
R4 2 N4 3.3195
R5 2 N5 2.7862
R6 2 N6 695.4261m
R7 2 N7 3.6817
R8 2 1 1000000
.ends 0402_744765115GA_15n
*******
.subckt 0402_744765116A_16n 1 2
C1 1 N7 89.6533f
L1 1 N1 15.2n
L2 N1 N2 184.4580p
L3 N2 N3 191.2043p
L4 N3 N4 212.1927p
L5 N4 N5 206.5663p
L6 N5 N6 986.1019p
R1 2 N1 3.7549
R2 2 N2 4.5245
R3 2 N3 4.1995
R4 2 N4 3.3196
R5 2 N5 2.7862
R6 2 N6 694.1841m
R7 2 N7 3.6818
R8 2 1 1000000
.ends 0402_744765116A_16n
*******
.subckt 0402_744765116GA_16n 1 2
C1 1 N7 89.6533f
L1 1 N1 15.2n
L2 N1 N2 184.4580p
L3 N2 N3 191.2043p
L4 N3 N4 212.1927p
L5 N4 N5 206.5663p
L6 N5 N6 986.1019p
R1 2 N1 3.7549
R2 2 N2 4.5245
R3 2 N3 4.1995
R4 2 N4 3.3196
R5 2 N5 2.7862
R6 2 N6 694.1841m
R7 2 N7 3.6818
R8 2 1 1000000
.ends 0402_744765116GA_16n
*******
.subckt 0402_744765118A_18n 1 2
C1 1 N7 82.8466f
L1 1 N1 17.3n
L2 N1 N2 184.4580p
L3 N2 N3 191.2043p
L4 N3 N4 212.1927p
L5 N4 N5 209.5938p
L6 N5 N6 863.2763p
R1 2 N1 4.0095
R2 2 N2 4.7252
R3 2 N3 4.2808
R4 2 N4 3.3605
R5 2 N5 2.7684
R6 2 N6 265.8437m
R7 2 N7 3.677
R8 2 1 1000000
.ends 0402_744765118A_18n
*******
.subckt 0402_744765118GA_18n 1 2
C1 1 N7 82.8466f
L1 1 N1 17.3n
L2 N1 N2 184.4580p
L3 N2 N3 191.2043p
L4 N3 N4 212.1927p
L5 N4 N5 209.5938p
L6 N5 N6 863.2763p
R1 2 N1 4.0095
R2 2 N2 4.7252
R3 2 N3 4.2808
R4 2 N4 3.3605
R5 2 N5 2.7684
R6 2 N6 265.8437m
R7 2 N7 3.677
R8 2 1 1000000
.ends 0402_744765118GA_18n
*******
.subckt 0402_744765119A_19n 1 2
C1 1 N7 71.0935f
L1 1 N1 18n
L2 N1 N2 184.4421p
L3 N2 N3 191.2043p
L4 N3 N4 212.1927p
L5 N4 N5 261.9862p
L6 N5 N6 994.6071p
R1 2 N1 7.3531
R2 2 N2 8.1557
R3 2 N3 4.2808
R4 2 N4 3.6212
R5 2 N5 2.9318
R6 2 N6 1.1848
R7 2 N7 3.6102
R8 2 1 1000000
.ends 0402_744765119A_19n
*******
.subckt 0402_744765119GA_19n 1 2
C1 1 N7 71.0935f
L1 1 N1 18n
L2 N1 N2 184.4421p
L3 N2 N3 191.2043p
L4 N3 N4 212.1927p
L5 N4 N5 261.9862p
L6 N5 N6 994.6071p
R1 2 N1 7.3531
R2 2 N2 8.1557
R3 2 N3 4.2808
R4 2 N4 3.6212
R5 2 N5 2.9318
R6 2 N6 1.1848
R7 2 N7 3.6102
R8 2 1 1000000
.ends 0402_744765119GA_19n
*******
.subckt 0402_744765120A_20n 1 2
C1 1 N7 82.0086f
L1 1 N1 19.2n
L2 N1 N2 351.8529p
L3 N2 N3 569.0964p
L4 N3 N4 651.0460p
L5 N4 N5 573.2864p
L6 N5 N6 1.1149n
R1 2 N1 3.9611
R2 2 N2 4.7233
R3 2 N3 4.3048
R4 2 N4 3.4051
R5 2 N5 2.8219
R6 2 N6 856.8275m
R7 2 N7 3.6791
R8 2 1 1000000
.ends 0402_744765120A_20n
*******
.subckt 0402_744765120GA_20n 1 2
C1 1 N7 82.0086f
L1 1 N1 19.2n
L2 N1 N2 351.8529p
L3 N2 N3 569.0964p
L4 N3 N4 651.0460p
L5 N4 N5 573.2864p
L6 N5 N6 1.1149n
R1 2 N1 3.9611
R2 2 N2 4.7233
R3 2 N3 4.3048
R4 2 N4 3.4051
R5 2 N5 2.8219
R6 2 N6 856.8275m
R7 2 N7 3.6791
R8 2 1 1000000
.ends 0402_744765120GA_20n
*******
.subckt 0402_744765122A_22n 1 2
C1 1 N7 69.0722f
L1 1 N1 21.2n
L2 N1 N2 432.7651p
L3 N2 N3 416.8593p
L4 N3 N4 516.5121p
L5 N4 N5 519.8417p
L6 N5 N6 1.1021n
R1 2 N1 3.9788
R2 2 N2 4.7174
R3 2 N3 4.2842
R4 2 N4 3.3872
R5 2 N5 2.809
R6 2 N6 789.1994m
R7 2 N7 3.6755
R8 2 1 1000000
.ends 0402_744765122A_22n
*******
.subckt 0402_744765122GA_22n 1 2
C1 1 N7 69.0722f
L1 1 N1 21.2n
L2 N1 N2 432.7651p
L3 N2 N3 416.8593p
L4 N3 N4 516.5121p
L5 N4 N5 519.8417p
L6 N5 N6 1.1021n
R1 2 N1 3.9788
R2 2 N2 4.7174
R3 2 N3 4.2842
R4 2 N4 3.3872
R5 2 N5 2.809
R6 2 N6 789.1994m
R7 2 N7 3.6755
R8 2 1 1000000
.ends 0402_744765122GA_22n
*******
.subckt 0402_744765123A_23n 1 2
C1 1 N7 76.1232f
L1 1 N1 22.2n
L2 N1 N2 603.2051p
L3 N2 N3 463.5833p
L4 N3 N4 525.9776p
L5 N4 N5 526.0674p
L6 N5 N6 1.1066n
R1 2 N1 4.0071
R2 2 N2 4.7258
R3 2 N3 4.2862
R4 2 N4 3.3881
R5 2 N5 2.8101
R6 2 N6 791.9371m
R7 2 N7 3.6775
R8 2 1 1000000
.ends 0402_744765123A_23n
*******
.subckt 0402_744765123GA_23n 1 2
C1 1 N7 76.1232f
L1 1 N1 22.2n
L2 N1 N2 603.2051p
L3 N2 N3 463.5833p
L4 N3 N4 525.9776p
L5 N4 N5 526.0674p
L6 N5 N6 1.1066n
R1 2 N1 4.0071
R2 2 N2 4.7258
R3 2 N3 4.2862
R4 2 N4 3.3881
R5 2 N5 2.8101
R6 2 N6 791.9371m
R7 2 N7 3.6775
R8 2 1 1000000
.ends 0402_744765123GA_23n
*******
.subckt 0402_744765124A_24n 1 2
C1 1 N7 80.2086f
L1 1 N1 23.2n
L2 N1 N2 599.8434p
L3 N2 N3 663.0589p
L4 N3 N4 866.2427p
L5 N4 N5 801.8895p
L6 N5 N6 1.2620n
R1 2 N1 3.9944
R2 2 N2 4.7297
R3 2 N3 4.3203
R4 2 N4 3.4491
R5 2 N5 2.8737
R6 2 N6 1.0405
R7 2 N7 3.6857
R8 2 1 1000000
.ends 0402_744765124A_24n
*******
.subckt 0402_744765124GA_24n 1 2
C1 1 N7 80.2086f
L1 1 N1 23.2n
L2 N1 N2 599.8434p
L3 N2 N3 663.0589p
L4 N3 N4 866.2427p
L5 N4 N5 801.8895p
L6 N5 N6 1.2620n
R1 2 N1 3.9944
R2 2 N2 4.7297
R3 2 N3 4.3203
R4 2 N4 3.4491
R5 2 N5 2.8737
R6 2 N6 1.0405
R7 2 N7 3.6857
R8 2 1 1000000
.ends 0402_744765124GA_24n
*******
.subckt 0402_744765127A_27n 1 2
C1 1 N7 70.9595f
L1 1 N1 26n
L2 N1 N2 731.7231p
L3 N2 N3 692.2963p
L4 N3 N4 867.5511p
L5 N4 N5 803.8989p
L6 N5 N6 1.2638n
R1 2 N1 4.0219
R2 2 N2 4.7397
R3 2 N3 4.3216
R4 2 N4 3.4494
R5 2 N5 2.8743
R6 2 N6 1.042
R7 2 N7 3.6834
R8 2 1 1000000
.ends 0402_744765127A_27n
*******
.subckt 0402_744765127GA_27n 1 2
C1 1 N7 70.9595f
L1 1 N1 26n
L2 N1 N2 731.7231p
L3 N2 N3 692.2963p
L4 N3 N4 867.5511p
L5 N4 N5 803.8989p
L6 N5 N6 1.2638n
R1 2 N1 4.0219
R2 2 N2 4.7397
R3 2 N3 4.3216
R4 2 N4 3.4494
R5 2 N5 2.8743
R6 2 N6 1.042
R7 2 N7 3.6834
R8 2 1 1000000
.ends 0402_744765127GA_27n
*******
.subckt 0402_744765130A_30n 1 2
C1 1 N7 74.1373f
L1 1 N1 29.1n
L2 N1 N2 1.1419n
L3 N2 N3 791.8263p
L4 N3 N4 1.3275n
L5 N4 N5 1.1844n
L6 N5 N6 1.4598n
R1 2 N1 4.7216
R2 2 N2 4.7246
R3 2 N3 4.3857
R4 2 N4 3.5901
R5 2 N5 3.02
R6 2 N6 1.5055
R7 2 N7 3.7342
R8 2 1 1000000
.ends 0402_744765130A_30n
*******
.subckt 0402_744765130GA_30n 1 2
C1 1 N7 74.1373f
L1 1 N1 29.1n
L2 N1 N2 1.1419n
L3 N2 N3 791.8263p
L4 N3 N4 1.3275n
L5 N4 N5 1.1844n
L6 N5 N6 1.4598n
R1 2 N1 4.7216
R2 2 N2 4.7246
R3 2 N3 4.3857
R4 2 N4 3.5901
R5 2 N5 3.02
R6 2 N6 1.5055
R7 2 N7 3.7342
R8 2 1 1000000
.ends 0402_744765130GA_30n
*******
.subckt 0402_744765133A_33n 1 2
C1 1 N7 64.5625f
L1 1 N1 32.2n
L2 N1 N2 1.0670n
L3 N2 N3 301.7329p
L4 N3 N4 1.1241n
L5 N4 N5 1.1159n
L6 N5 N6 1.4412n
R1 2 N1 4.9858
R2 2 N2 4.6172
R3 2 N3 4.2824
R4 2 N4 3.5281
R5 2 N5 2.9667
R6 2 N6 1.3303
R7 2 N7 3.7565
R8 2 1 1000000
.ends 0402_744765133A_33n
*******
.subckt 0402_744765133GA_33n 1 2
C1 1 N7 64.5625f
L1 1 N1 32.2n
L2 N1 N2 1.0670n
L3 N2 N3 301.7329p
L4 N3 N4 1.1241n
L5 N4 N5 1.1159n
L6 N5 N6 1.4412n
R1 2 N1 4.9858
R2 2 N2 4.6172
R3 2 N3 4.2824
R4 2 N4 3.5281
R5 2 N5 2.9667
R6 2 N6 1.3303
R7 2 N7 3.7565
R8 2 1 1000000
.ends 0402_744765133GA_33n
*******
.subckt 0402_744765136A_36n 1 2
C1 1 N7 66.7653f
L1 1 N1 35n
L2 N1 N2 1.5270n
L3 N2 N3 575.4741p
L4 N3 N4 1.2818n
L5 N4 N5 1.1948n
L6 N5 N6 1.4721n
R1 2 N1 5.0899
R2 2 N2 4.6682
R3 2 N3 4.3299
R4 2 N4 3.5641
R5 2 N5 2.9915
R6 2 N6 1.3748
R7 2 N7 3.7626
R8 2 1 1000000
.ends 0402_744765136A_36n
*******
.subckt 0402_744765136GA_36n 1 2
C1 1 N7 66.7653f
L1 1 N1 35n
L2 N1 N2 1.5270n
L3 N2 N3 575.4741p
L4 N3 N4 1.2818n
L5 N4 N5 1.1948n
L6 N5 N6 1.4721n
R1 2 N1 5.0899
R2 2 N2 4.6682
R3 2 N3 4.3299
R4 2 N4 3.5641
R5 2 N5 2.9915
R6 2 N6 1.3748
R7 2 N7 3.7626
R8 2 1 1000000
.ends 0402_744765136GA_36n
*******
.subckt 0402_744765139A_39n 1 2
C1 1 N7 57.6983f
L1 1 N1 37n
L2 N1 N2 1.3611n
L3 N2 N3 1.7441n
L4 N3 N4 2.0947n
L5 N4 N5 2.0539n
L6 N5 N6 1.8246n
R1 2 N1 6.5863
R2 2 N2 4.7459
R3 2 N3 4.782
R4 2 N4 4.0992
R5 2 N5 3.4699
R6 2 N6 2.3704
R7 2 N7 3.9032
R8 2 1 1000000
.ends 0402_744765139A_39n
*******
.subckt 0402_744765139GA_39n 1 2
C1 1 N7 57.6983f
L1 1 N1 37n
L2 N1 N2 1.3611n
L3 N2 N3 1.7441n
L4 N3 N4 2.0947n
L5 N4 N5 2.0539n
L6 N5 N6 1.8246n
R1 2 N1 6.5863
R2 2 N2 4.7459
R3 2 N3 4.782
R4 2 N4 4.0992
R5 2 N5 3.4699
R6 2 N6 2.3704
R7 2 N7 3.9032
R8 2 1 1000000
.ends 0402_744765139GA_39n
*******
.subckt 0402_744765140A_40n 1 2
C1 1 N7 66.0474f
L1 1 N1 38n
L2 N1 N2 1.3721n
L3 N2 N3 1.7430n
L4 N3 N4 2.0947n
L5 N4 N5 2.0540n
L6 N5 N6 1.8246n
R1 2 N1 6.5922
R2 2 N2 4.7457
R3 2 N3 4.7819
R4 2 N4 4.0993
R5 2 N5 3.47
R6 2 N6 2.3705
R7 2 N7 3.9045
R8 2 1 1000000
.ends 0402_744765140A_40n
*******
.subckt 0402_744765140GA_40n 1 2
C1 1 N7 66.0474f
L1 1 N1 38n
L2 N1 N2 1.3721n
L3 N2 N3 1.7430n
L4 N3 N4 2.0947n
L5 N4 N5 2.0540n
L6 N5 N6 1.8246n
R1 2 N1 6.5922
R2 2 N2 4.7457
R3 2 N3 4.7819
R4 2 N4 4.0993
R5 2 N5 3.47
R6 2 N6 2.3705
R7 2 N7 3.9045
R8 2 1 1000000
.ends 0402_744765140GA_40n
*******
.subckt 0402_744765143A_43n 1 2
C1 1 N7 63.9382f
L1 1 N1 40n
L2 N1 N2 1.4956n
L3 N2 N3 344.8851p
L4 N3 N4 1.5260n
L5 N4 N5 1.7872n
L6 N5 N6 1.7511n
R1 2 N1 7.011
R2 2 N2 4.1838
R3 2 N3 4.3654
R4 2 N4 3.8612
R5 2 N5 3.3237
R6 2 N6 2.1834
R7 2 N7 3.9867
R8 2 1 1000000
.ends 0402_744765143A_43n
*******
.subckt 0402_744765143GA_43n 1 2
C1 1 N7 63.9382f
L1 1 N1 40n
L2 N1 N2 1.4956n
L3 N2 N3 344.8851p
L4 N3 N4 1.5260n
L5 N4 N5 1.7872n
L6 N5 N6 1.7511n
R1 2 N1 7.011
R2 2 N2 4.1838
R3 2 N3 4.3654
R4 2 N4 3.8612
R5 2 N5 3.3237
R6 2 N6 2.1834
R7 2 N7 3.9867
R8 2 1 1000000
.ends 0402_744765143GA_43n
*******
.subckt 0402_744765147A_47n 1 2
C1 1 N7 0.122209180174463p
L1 1 N1 47n
L2 N1 N2 1.7547n
L3 N2 N3 1.8894n
L4 N3 N4 1.9412n
L5 N4 N5 1.2813n
L6 N5 N6 1.3683n
R1 2 N1 7.3009
R2 2 N2 4.7788
R3 2 N3 4.5418
R4 2 N4 3.7494
R5 2 N5 3.1902
R6 2 N6 2.1172
R7 2 N7 4.0266
R8 2 1 1000000
.ends 0402_744765147A_47n
*******
.subckt 0402_744765147GA_47n 1 2
C1 1 N7 0.122209180174463p
L1 1 N1 47n
L2 N1 N2 1.7547n
L3 N2 N3 1.8894n
L4 N3 N4 1.9412n
L5 N4 N5 1.2813n
L6 N5 N6 1.3683n
R1 2 N1 7.3009
R2 2 N2 4.7788
R3 2 N3 4.5418
R4 2 N4 3.7494
R5 2 N5 3.1902
R6 2 N6 2.1172
R7 2 N7 4.0266
R8 2 1 1000000
.ends 0402_744765147GA_47n
*******
.subckt 0402_744765151A_51n 1 2
C1 1 N7 0.162178770866817p
L1 1 N1 49n
L2 N1 N2 1.8328n
L3 N2 N3 1.8613n
L4 N3 N4 2.0899n
L5 N4 N5 1.4179n
L6 N5 N6 1.4248n
R1 2 N1 8.9988
R2 2 N2 4.9103
R3 2 N3 4.5655
R4 2 N4 3.85
R5 2 N5 3.3016
R6 2 N6 2.3014
R7 2 N7 4.2769
R8 2 1 1000000
.ends 0402_744765151A_51n
*******
.subckt 0402_744765151GA_51n 1 2
C1 1 N7 0.162178770866817p
L1 1 N1 49n
L2 N1 N2 1.8328n
L3 N2 N3 1.8613n
L4 N3 N4 2.0899n
L5 N4 N5 1.4179n
L6 N5 N6 1.4248n
R1 2 N1 8.9988
R2 2 N2 4.9103
R3 2 N3 4.5655
R4 2 N4 3.85
R5 2 N5 3.3016
R6 2 N6 2.3014
R7 2 N7 4.2769
R8 2 1 1000000
.ends 0402_744765151GA_51n
*******
.subckt 0402_744765156A_56n 1 2
C1 1 N7 0.146024899315836p
L1 1 N1 56n
L2 N1 N2 1.8359n
L3 N2 N3 1.9056n
L4 N3 N4 2.0899n
L5 N4 N5 1.6907n
L6 N5 N6 1.5178n
R1 2 N1 10.2892
R2 2 N2 5.7153
R3 2 N3 4.8061
R4 2 N4 4.0222
R5 2 N5 3.4372
R6 2 N6 2.464
R7 2 N7 4.5128
R8 2 1 1000000
.ends 0402_744765156A_56n
*******
.subckt 0402_744765156GA_56n 1 2
C1 1 N7 0.146024899315836p
L1 1 N1 56n
L2 N1 N2 1.8359n
L3 N2 N3 1.9056n
L4 N3 N4 2.0899n
L5 N4 N5 1.6907n
L6 N5 N6 1.5178n
R1 2 N1 10.2892
R2 2 N2 5.7153
R3 2 N3 4.8061
R4 2 N4 4.0222
R5 2 N5 3.4372
R6 2 N6 2.464
R7 2 N7 4.5128
R8 2 1 1000000
.ends 0402_744765156GA_56n
*******
.subckt 0402_744765168A_68n 1 2
C1 1 N7 0.14193886767822p
L1 1 N1 68n
L2 N1 N2 1.8359n
L3 N2 N3 1.9051n
L4 N3 N4 2.0899n
L5 N4 N5 2.0603n
L6 N5 N6 1.8507n
R1 2 N1 14.1035
R2 2 N2 10.1194
R3 2 N3 6.2545
R4 2 N4 4.8005
R5 2 N5 3.9377
R6 2 N6 2.6435
R7 2 N7 5.4165
R8 2 1 1000000
.ends 0402_744765168A_68n
*******
.subckt 0402_744765168GA_68n 1 2
C1 1 N7 0.14193886767822p
L1 1 N1 68n
L2 N1 N2 1.8359n
L3 N2 N3 1.9051n
L4 N3 N4 2.0899n
L5 N4 N5 2.0603n
L6 N5 N6 1.8507n
R1 2 N1 14.1035
R2 2 N2 10.1194
R3 2 N3 6.2545
R4 2 N4 4.8005
R5 2 N5 3.9377
R6 2 N6 2.6435
R7 2 N7 5.4165
R8 2 1 1000000
.ends 0402_744765168GA_68n
*******
.subckt 0402_744765175A_75n 1 2
C1 1 N7 0.14057743614158p
L1 1 N1 73n
L2 N1 N2 2.1879n
L3 N2 N3 1.9195n
L4 N3 N4 3.2201n
L5 N4 N5 2.9613n
L6 N5 N6 2.2215n
R1 2 N1 14.3027
R2 2 N2 10.0124
R3 2 N3 6.2565
R4 2 N4 4.806
R5 2 N5 3.9428
R6 2 N6 2.6498
R7 2 N7 5.4161
R8 2 1 1000000
.ends 0402_744765175A_75n
*******
.subckt 0402_744765175GA_75n 1 2
C1 1 N7 0.14057743614158p
L1 1 N1 73n
L2 N1 N2 2.1879n
L3 N2 N3 1.9195n
L4 N3 N4 3.2201n
L5 N4 N5 2.9613n
L6 N5 N6 2.2215n
R1 2 N1 14.3027
R2 2 N2 10.0124
R3 2 N3 6.2565
R4 2 N4 4.806
R5 2 N5 3.9428
R6 2 N6 2.6498
R7 2 N7 5.4161
R8 2 1 1000000
.ends 0402_744765175GA_75n
*******
.subckt 0402_744765182A_82n 1 2
C1 1 N7 0.137291581435019p
L1 1 N1 77n
L2 N1 N2 2.3273n
L3 N2 N3 1.7144n
L4 N3 N4 5.3645n
L5 N4 N5 4.1000n
L6 N5 N6 2.6484n
R1 2 N1 16.6704
R2 2 N2 10.1574
R3 2 N3 6.2692
R4 2 N4 4.8192
R5 2 N5 3.9544
R6 2 N6 2.668
R7 2 N7 5.4281
R8 2 1 1000000
.ends 0402_744765182A_82n
*******
.subckt 0402_744765182GA_82n 1 2
C1 1 N7 0.137291581435019p
L1 1 N1 77n
L2 N1 N2 2.3273n
L3 N2 N3 1.7144n
L4 N3 N4 5.3645n
L5 N4 N5 4.1000n
L6 N5 N6 2.6484n
R1 2 N1 16.6704
R2 2 N2 10.1574
R3 2 N3 6.2692
R4 2 N4 4.8192
R5 2 N5 3.9544
R6 2 N6 2.668
R7 2 N7 5.4281
R8 2 1 1000000
.ends 0402_744765182GA_82n
*******
.subckt 0402_744765191A_91n 1 2
C1 1 N7 0.152732460692871p
L1 1 N1 84n
L2 N1 N2 2.4371n
L3 N2 N3 2.7767n
L4 N3 N4 6.3842n
L5 N4 N5 4.9583n
L6 N5 N6 2.9884n
R1 2 N1 16.6013
R2 2 N2 10.3446
R3 2 N3 6.2755
R4 2 N4 4.831
R5 2 N5 3.9671
R6 2 N6 2.6894
R7 2 N7 5.4287
R8 2 1 1000000
.ends 0402_744765191A_91n
*******
.subckt 0402_744765191GA_91n 1 2
C1 1 N7 0.152732460692871p
L1 1 N1 84n
L2 N1 N2 2.4371n
L3 N2 N3 2.7767n
L4 N3 N4 6.3842n
L5 N4 N5 4.9583n
L6 N5 N6 2.9884n
R1 2 N1 16.6013
R2 2 N2 10.3446
R3 2 N3 6.2755
R4 2 N4 4.831
R5 2 N5 3.9671
R6 2 N6 2.6894
R7 2 N7 5.4287
R8 2 1 1000000
.ends 0402_744765191GA_91n
*******
.subckt 0402_744765210A_100n 1 2
C1 1 N7 0.149883412868408p
L1 1 N1 90n
L2 N1 N2 2.4584n
L3 N2 N3 2.8416n
L4 N3 N4 6.4448n
L5 N4 N5 5.0217n
L6 N5 N6 3.0148n
R1 2 N1 16.5885
R2 2 N2 10.3651
R3 2 N3 6.2758
R4 2 N4 4.832
R5 2 N5 3.9682
R6 2 N6 2.6912
R7 2 N7 5.4285
R8 2 1 1000000
.ends 0402_744765210A_100n
*******
.subckt 0402_744765210GA_100n 1 2
C1 1 N7 0.149883412868408p
L1 1 N1 90n
L2 N1 N2 2.4584n
L3 N2 N3 2.8416n
L4 N3 N4 6.4448n
L5 N4 N5 5.0217n
L6 N5 N6 3.0148n
R1 2 N1 16.5885
R2 2 N2 10.3651
R3 2 N3 6.2758
R4 2 N4 4.832
R5 2 N5 3.9682
R6 2 N6 2.6912
R7 2 N7 5.4285
R8 2 1 1000000
.ends 0402_744765210GA_100n
*******
.subckt 0402_744765212A_120n 1 2
C1 1 N7 0.174451079715985p
L1 1 N1 108n
L2 N1 N2 4.1236n
L3 N2 N3 3.8718n
L4 N3 N4 10.5290n
L5 N4 N5 7.8997n
L6 N5 N6 4.0651n
R1 2 N1 17.611
R2 2 N2 10.2045
R3 2 N3 6.2999
R4 2 N4 4.8859
R5 2 N5 4.0186
R6 2 N6 2.7737
R7 2 N7 5.4338
R8 2 1 1000000
.ends 0402_744765212A_120n
*******
.subckt 0402_744765212GA_120n 1 2
C1 1 N7 0.174451079715985p
L1 1 N1 108n
L2 N1 N2 4.1236n
L3 N2 N3 3.8718n
L4 N3 N4 10.5290n
L5 N4 N5 7.8997n
L6 N5 N6 4.0651n
R1 2 N1 17.611
R2 2 N2 10.2045
R3 2 N3 6.2999
R4 2 N4 4.8859
R5 2 N5 4.0186
R6 2 N6 2.7737
R7 2 N7 5.4338
R8 2 1 1000000
.ends 0402_744765212GA_120n
*******
.subckt 0603_744761016A_1.6n 1 2
C1 1 N7 0.101321187099044p
L1 1 N1 1.5n
L2 N1 N2 46.4315p
L3 N2 N3 24.9647p
L4 N3 N4 99.4232p
L5 N4 N5 75.1462p
L6 N5 N6 53.5367p
R1 2 N1 364.8342m
R2 2 N2 426.2027m
R3 2 N3 95.2027m
R4 2 N4 110.1936m
R5 2 N5 95.0487m
R6 2 N6 87.4456m
R7 2 N7 1.946
R8 2 1 1000000
.ends 0603_744761016A_1.6n
*******
.subckt 0603_744761018A_1.8n 1 2
C1 1 N7 0.0900632774213724p
L1 1 N1 1.7n
L2 N1 N2 86.9703p
L3 N2 N3 70.3590p
L4 N3 N4 138.1753p
L5 N4 N5 75.3428p
L6 N5 N6 53.5940p
R1 2 N1 438.5420m
R2 2 N2 420.7053m
R3 2 N3 141.6519m
R4 2 N4 133.7273m
R5 2 N5 113.6405m
R6 2 N6 87.6297m
R7 2 N7 1.946
R8 2 1 1000000
.ends 0603_744761018A_1.8n
*******
.subckt 0603_744761020A_2n 1 2
C1 1 N7 0.26601865968033p
L1 1 N1 1.8n
L2 N1 N2 116.2285p
L3 N2 N3 57.7758p
L4 N3 N4 291.3934p
L5 N4 N5 76.1910p
L6 N5 N6 53.9027p
R1 2 N1 727.0696m
R2 2 N2 420.3238m
R3 2 N3 267.8926m
R4 2 N4 214.1069m
R5 2 N5 182.4512m
R6 2 N6 88.8345m
R7 2 N7 1.946
R8 2 1 1000000
.ends 0603_744761020A_2n
*******
.subckt 0603_744761033A_3.3n 1 2
C1 1 N7 0.228176204146948p
L1 1 N1 3.1n
L2 N1 N2 74.6789p
L3 N2 N3 54.4807p
L4 N3 N4 290.7303p
L5 N4 N5 76.1888p
L6 N5 N6 53.9010p
R1 2 N1 716.9716m
R2 2 N2 418.1686m
R3 2 N3 266.6832m
R4 2 N4 214.0411m
R5 2 N5 182.5034m
R6 2 N6 88.8381m
R7 2 N7 1.946
R8 2 1 1000000
.ends 0603_744761033A_3.3n
*******
.subckt 0603_744761036A_3.6n 1 2
C1 1 N7 0.202131386054143p
L1 1 N1 3.4n
L2 N1 N2 147.3304p
L3 N2 N3 36.2573p
L4 N3 N4 290.2187p
L5 N4 N5 76.2384p
L6 N5 N6 53.9414p
R1 2 N1 779.7842m
R2 2 N2 416.0625m
R3 2 N3 265.7198m
R4 2 N4 218.4858m
R5 2 N5 189.5536m
R6 2 N6 89.1102m
R7 2 N7 1.946
R8 2 1 1000000
.ends 0603_744761036A_3.6n
*******
.subckt 0603_744761039A_3.9n 1 2
C1 1 N7 0.180415219193454p
L1 1 N1 3.6n
L2 N1 N2 114.9991p
L3 N2 N3 172.8258p
L4 N3 N4 424.0175p
L5 N4 N5 77.1268p
L6 N5 N6 54.3887p
R1 2 N1 832.0440m
R2 2 N2 396.5298m
R3 2 N3 332.8480m
R4 2 N4 279.0579m
R5 2 N5 250.3686m
R6 2 N6 92.0094m
R7 2 N7 1.9461
R8 2 1 1000000
.ends 0603_744761039A_3.9n
*******
.subckt 0603_744761043A_4.3n 1 2
C1 1 N7 0.169226276696492p
L1 1 N1 4n
L2 N1 N2 122.8906p
L3 N2 N3 254.4246p
L4 N3 N4 522.8964p
L5 N4 N5 78.1133p
L6 N5 N6 55.0456p
R1 2 N1 1.3831
R2 2 N2 431.6943m
R3 2 N3 277.5790m
R4 2 N4 380.2072m
R5 2 N5 362.3595m
R6 2 N6 102.2510m
R7 2 N7 1.9462
R8 2 1 1000000
.ends 0603_744761043A_4.3n
*******
.subckt 0603_744761047A_4.7n 1 2
C1 1 N7 0.160208824188283p
L1 1 N1 4n
L2 N1 N2 133.4552p
L3 N2 N3 339.8837p